** 2/3 des Modells zum presshaerten eines Hutprofils
** Loesungsstrategie: Explizit
** Verfahrensschritte: Umformen + Nachdruecken
*Heading
** Job name: WTP-M3_WS840.0_WZ120.0_p18.0_t10.0 Model name: Model-3_implizit
** Generated by: Abaqus/CAE 2021.HF8
*Preprint, echo=NO, model=NO, history=NO, contact=NO
**
** PARTS
**
**
** ASSEMBLY
**
*Assembly, name=Assembly
**  
*Instance, library=WTP-M2_WS840.0_WZ120.0_p18.0, instance=Platine-1
** 
** PREDEFINED FIELD
** 
** Name: IMORT_Model-2   Type: Initial State
*Import, state=yes, update=yes
*End Instance
**  
*Instance, library=WTP-M2_WS840.0_WZ120.0_p18.0, instance=WZ_Matrize-1
** 
** PREDEFINED FIELD
** 
** Name: IMORT_Model-2   Type: Initial State
*Import, state=yes, update=yes
*End Instance
**  
*Instance, library=WTP-M2_WS840.0_WZ120.0_p18.0, instance=WZ_Stempel-1
** 
** PREDEFINED FIELD
** 
** Name: IMORT_Model-2   Type: Initial State
*Import, state=yes, update=yes
*End Instance
**  
*Nset, nset=Blechoberseite, instance=Platine-1
   3,   6,  10,  23, 159, 160, 161, 162, 163, 164, 165, 166, 167, 168, 169, 170
 171, 172, 173, 174, 175, 176, 177, 178, 179, 180, 181, 182, 183, 184, 185, 186
 187, 188, 189, 190, 191, 192, 193, 194, 195, 196, 197, 198, 199, 200, 201, 202
 203, 204, 205, 206, 207, 208, 209, 210, 211, 212, 213, 214, 215, 216, 217, 218
 219, 220, 221, 222, 223, 224, 225, 443, 444, 445, 446, 447, 448, 449, 450, 451
 452, 453, 454, 455, 456, 457, 458, 459, 460, 461, 462, 463, 464, 465, 466, 467
 468, 469, 470, 471, 472, 473, 474, 475, 476, 477, 478, 479, 480, 481, 482, 483
 484, 485, 486, 487, 488, 489, 490, 491, 492, 493, 494, 495, 496, 497, 498, 499
 500, 501, 502, 503, 504, 505, 506, 507, 508, 509, 510, 511, 512, 513, 514, 515
 516, 517, 965, 966, 967, 968, 969, 970, 971, 972, 973, 974, 975, 976, 977, 978
 979, 980, 981, 982, 983, 984, 985, 986
*Nset, nset=Blechunterseite, instance=Platine-1
  13,  16,  17,  20, 660, 661, 662, 663, 664, 665, 666, 667, 668, 669, 670, 671
 672, 673, 674, 675, 676, 677, 678, 679, 680, 681, 682, 683, 684, 685, 686, 687
 688, 689, 690, 691, 692, 693, 694, 695, 696, 697, 698, 699, 700, 701, 702, 703
 704, 705, 706, 707, 708, 709, 710, 711, 712, 713, 714, 715, 716, 717, 718, 719
 720, 721, 722, 723, 724, 725, 726, 771, 772, 773, 774, 775, 776, 777, 778, 779
 780, 781, 782, 783, 784, 785, 786, 787, 788, 789, 790, 791, 792, 815, 816, 817
 818, 819, 820, 821, 822, 823, 824, 825, 826, 827, 828, 829, 830, 831, 832, 833
 834, 835, 836, 837, 838, 839, 840, 841, 842, 843, 844, 845, 846, 847, 848, 849
 850, 851, 852, 853, 854, 855, 856, 857, 858, 859, 860, 861, 862, 863, 864, 865
 866, 867, 868, 869, 870, 871, 872, 873, 874, 875, 876, 877, 878, 879, 880, 881
 882, 883, 884, 885, 886, 887, 888, 889
*Elset, elset=Mass-scaling-Elemente, instance=WZ_Stempel-1
 10, 11, 12, 13, 14, 15, 16, 17, 85, 86, 87, 88, 89, 90, 91, 92
*Elset, elset=Mass-scaling-Elemente, instance=WZ_Matrize-1, generate
 60,  67,   1
*Nset, nset=Matrize_UX, instance=WZ_Matrize-1
 147, 148, 149, 150, 156, 157, 158, 159, 169, 170, 463, 464, 531, 532
*Elset, elset=Matrize_UX, instance=WZ_Matrize-1
 162, 186, 211, 224, 302, 305
*Nset, nset=Matrize_UY, instance=WZ_Matrize-1
 167, 168, 169, 170, 175, 176, 467, 468, 469, 470, 471, 472, 473, 474, 475, 476
 477, 478, 479, 480, 481, 482, 483, 484, 485, 486, 487, 488, 489, 490, 534, 535
 536, 537, 538, 539, 540, 541
*Elset, elset=Matrize_UY, instance=WZ_Matrize-1
 224, 225, 226, 227, 228, 229, 230, 231, 232, 233, 234, 235, 236, 313, 314, 315
 316, 317
*Nset, nset=Matrize_UZ, instance=WZ_Matrize-1, generate
   1,  764,    1
*Elset, elset=Matrize_UZ, instance=WZ_Matrize-1, generate
   1,  317,    1
*Nset, nset=Platine_Auflage, instance=Platine-1
 13, 14
*Elset, elset=Platine_Auflage, instance=Platine-1
 145, 236
*Nset, nset=Platine_Auswerfer, instance=Platine-1
 10, 11
*Elset, elset=Platine_Auswerfer, instance=Platine-1
 144, 312
*Nset, nset=Platine_Gegenkraft, instance=Platine-1
 13, 14
*Nset, nset=Platine_Scheibenschnitt-1, instance=Platine-1
   2,   3,   5,   6,   9,  10,  13,  16,  17,  19,  20,  23, 159, 160, 161, 162
 163, 164, 165, 166, 167, 168, 169, 170, 171, 172, 173, 174, 175, 176, 177, 178
 179, 180, 181, 182, 183, 184, 185, 186, 187, 188, 189, 190, 191, 192, 193, 194
 195, 196, 197, 198, 199, 200, 201, 202, 203, 204, 205, 206, 207, 208, 209, 210
 211, 212, 213, 214, 215, 216, 217, 218, 219, 220, 221, 222, 223, 224, 225, 226
 227, 228, 229, 230, 231, 232, 233, 234, 235, 236, 237, 238, 239, 240, 241, 242
 243, 244, 245, 246, 247, 248, 249, 250, 251, 252, 253, 254, 255, 256, 257, 258
 259, 260, 261, 262, 263, 264, 265, 266, 267, 268, 269, 270, 271, 272, 273, 274
 275, 276, 277, 278, 279, 280, 281, 282, 283, 284, 285, 286, 287, 288, 289, 290
 291, 292, 443, 444, 445, 446, 447, 448, 449, 450, 451, 452, 453, 454, 455, 456
 457, 458, 459, 460, 461, 462, 463, 464, 465, 466, 467, 468, 469, 470, 471, 472
 473, 474, 475, 476, 477, 478, 479, 480, 481, 482, 483, 484, 485, 486, 487, 488
 489, 490, 491, 492, 493, 494, 495, 496, 497, 498, 499, 500, 501, 502, 503, 504
 505, 506, 507, 508, 509, 510, 511, 512, 513, 514, 515, 516, 517, 518, 519, 520
 521, 522, 523, 524, 525, 526, 527, 528, 529, 530, 531, 532, 533, 534, 535, 536
 537, 538, 539, 540, 541, 542, 543, 544, 545, 546, 547, 548, 549, 550, 551, 552
 553, 554, 555, 556, 557, 558, 559, 560, 561, 562, 563, 564, 565, 566, 567, 568
 569, 570, 571, 572, 573, 574, 575, 576, 577, 578, 579, 580, 581, 582, 583, 584
 585, 586, 587, 588, 589, 590, 591, 592, 660, 661, 662, 663, 664, 665, 666, 667
 668, 669, 670, 671, 672, 673, 674, 675, 676, 677, 678, 679, 680, 681, 682, 683
** ... 12 like lines cut
*Elset, elset=Platine_Scheibenschnitt-1, instance=Platine-1, generate
   1,  334,    1
*Nset, nset=Platine_Scheibenschnitt-2, instance=Platine-1
    1,    4,    7,    8,   11,   12,   14,   15,   18,   21,   22,   24,   25,   26,   27,   28
   29,   30,   31,   32,   33,   34,   35,   36,   37,   38,   39,   40,   41,   42,   43,   44
   45,   46,   47,   48,   49,   50,   51,   52,   53,   54,   55,   56,   57,   58,   59,   60
   61,   62,   63,   64,   65,   66,   67,   68,   69,   70,   71,   72,   73,   74,   75,   76
   77,   78,   79,   80,   81,   82,   83,   84,   85,   86,   87,   88,   89,   90,   91,   92
   93,   94,   95,   96,   97,   98,   99,  100,  101,  102,  103,  104,  105,  106,  107,  108
  109,  110,  111,  112,  113,  114,  115,  116,  117,  118,  119,  120,  121,  122,  123,  124
  125,  126,  127,  128,  129,  130,  131,  132,  133,  134,  135,  136,  137,  138,  139,  140
  141,  142,  143,  144,  145,  146,  147,  148,  149,  150,  151,  152,  153,  154,  155,  156
  157,  158,  293,  294,  295,  296,  297,  298,  299,  300,  301,  302,  303,  304,  305,  306
  307,  308,  309,  310,  311,  312,  313,  314,  315,  316,  317,  318,  319,  320,  321,  322
  323,  324,  325,  326,  327,  328,  329,  330,  331,  332,  333,  334,  335,  336,  337,  338
  339,  340,  341,  342,  343,  344,  345,  346,  347,  348,  349,  350,  351,  352,  353,  354
  355,  356,  357,  358,  359,  360,  361,  362,  363,  364,  365,  366,  367,  368,  369,  370
  371,  372,  373,  374,  375,  376,  377,  378,  379,  380,  381,  382,  383,  384,  385,  386
  387,  388,  389,  390,  391,  392,  393,  394,  395,  396,  397,  398,  399,  400,  401,  402
  403,  404,  405,  406,  407,  408,  409,  410,  411,  412,  413,  414,  415,  416,  417,  418
  419,  420,  421,  422,  423,  424,  425,  426,  427,  428,  429,  430,  431,  432,  433,  434
  435,  436,  437,  438,  439,  440,  441,  442,  593,  594,  595,  596,  597,  598,  599,  600
  601,  602,  603,  604,  605,  606,  607,  608,  609,  610,  611,  612,  613,  614,  615,  616
** ... 12 like lines cut
*Elset, elset=Platine_Scheibenschnitt-2, instance=Platine-1, generate
   1,  334,    1
*Nset, nset=Platine_mittenschnitt, instance=Platine-1
  5,  6,  7,  8, 15, 16
*Elset, elset=Platine_mittenschnitt, instance=Platine-1
  68, 212
*Nset, nset=RP_Matrize, instance=WZ_Matrize-1
 765,
*Nset, nset=RP_Stempel, instance=WZ_Stempel-1
 563,
*Nset, nset=Stempel_UX, instance=WZ_Stempel-1
   1,   4,   5,   8,  37,  40,  44,  45, 137, 138, 149, 150, 152, 153, 156, 158
 213, 214, 215, 218, 219, 220, 227, 228, 229, 236, 237, 238, 428, 429, 430, 431
 437, 438, 439, 440
*Elset, elset=Stempel_UX, instance=WZ_Stempel-1
   1,   2,  30,  31,  34,  36,  37,  46,  47,  50, 149, 185, 188, 190, 201, 210
 219,
*Nset, nset=Stempel_UY, instance=WZ_Stempel-1
 151, 152, 153, 154, 441, 442, 443, 444, 445, 446, 447, 448, 449, 450, 451, 452
 453, 454, 455, 456
*Elset, elset=Stempel_UY, instance=WZ_Stempel-1, generate
 211,  219,    1
*Nset, nset=Stempel_UZ, instance=WZ_Stempel-1
   1,   2,   3,   4,   5,   6,   7,   8,   9,  10,  11,  12,  13,  14,  15,  16
  17,  18,  19,  20,  21,  22,  23,  24,  25,  26,  27,  28,  29,  30,  31,  32
  33,  34,  35,  36,  37,  38,  39,  40,  41,  42,  43,  44,  45,  46,  47,  48
  49,  50,  51,  52,  53,  54,  55,  56,  57,  58,  59,  60,  61,  62,  63,  64
  65,  66,  67,  68,  69,  70,  71,  72,  73,  74,  75,  76,  77,  78,  79,  80
  81,  82,  83,  84,  85,  86,  87,  88,  89,  90,  91,  92,  93,  94,  95,  96
  97,  98,  99, 100, 101, 102, 103, 104, 105, 106, 107, 108, 109, 110, 111, 112
 113, 114, 115, 116, 117, 118, 119, 120, 121, 122, 123, 124, 125, 126, 127, 128
 129, 130, 131, 132, 133, 134, 135, 136, 137, 138, 139, 140, 141, 142, 143, 144
 145, 146, 147, 148, 149, 150, 151, 152, 153, 154, 155, 156, 157, 158, 159, 160
 161, 162, 163, 164, 165, 166, 167, 168, 169, 170, 171, 172, 173, 174, 175, 176
 177, 178, 179, 180, 181, 182, 183, 184, 185, 186, 187, 188, 189, 190, 191, 192
 193, 194, 195, 196, 197, 198, 199, 200, 201, 202, 203, 204, 205, 206, 207, 208
 209, 210, 211, 212, 213, 214, 215, 216, 217, 218, 219, 220, 221, 222, 223, 224
 225, 226, 227, 228, 229, 230, 231, 232, 233, 234, 235, 236, 237, 238, 239, 240
 241, 242, 243, 244, 245, 246, 247, 248, 249, 250, 251, 252, 253, 254, 255, 256
 257, 258, 259, 260, 261, 262, 263, 264, 265, 266, 267, 268, 269, 270, 271, 272
 273, 274, 275, 276, 277, 278, 279, 280, 281, 282, 283, 284, 285, 286, 287, 288
 289, 290, 291, 292, 293, 294, 295, 296, 297, 298, 299, 300, 301, 302, 303, 304
 305, 306, 307, 308, 309, 310, 311, 312, 313, 314, 315, 316, 317, 318, 319, 320
** ... 15 like lines cut
*Elset, elset=Stempel_UZ, instance=WZ_Stempel-1, generate
   1,  219,    1
*Nset, nset=Tempverlauf_Boden, instance=Platine-1
 290,
*Nset, nset=Tempverlauf_Flansch, instance=Platine-1
 793,
*Nset, nset=Tempverlauf_Zarge, instance=Platine-1
 582,
*Nset, nset=WZ_All, instance=WZ_Matrize-1, generate
   1,  764,    1
*Nset, nset=WZ_All, instance=WZ_Stempel-1, generate
   1,  562,    1
*Elset, elset=WZ_All, instance=WZ_Matrize-1, generate
   1,  317,    1
*Elset, elset=WZ_All, instance=WZ_Stempel-1, generate
   1,  219,    1
*Nset, nset=WZ_Kuehlbohrungen, instance=WZ_Matrize-1
  29,  30,  35,  38,  59,  60,  61,  62,  67,  70,  72,  73,  75,  78,  79,  82
  84,  85,  87,  90,  96,  97, 195, 196, 199, 200, 243, 244, 255, 256, 263, 265
 301, 302, 307, 310, 329, 331
*Nset, nset=WZ_Kuehlbohrungen, instance=WZ_Stempel-1
  17,  18,  20,  21,  49,  50,  51,  52,  53,  60,  74,  80,  93,  98, 145, 146
 147, 148, 164, 165, 239, 240, 251, 252, 417, 418, 421, 424
*Elset, elset=WZ_Kuehlbohrungen, instance=WZ_Matrize-1
  10,  11,  12,  42,  43,  50,  51,  55,  56,  68,  69,  76,  77, 103, 104
*Elset, elset=WZ_Kuehlbohrungen, instance=WZ_Stempel-1
   7,   8,  51,  52,  59,  60, 167, 168, 179, 180
*Nset, nset=mod_auswerfer, instance=Platine-1
  3,  4,  6,  7, 10, 11
*Elset, elset=mod_auswerfer, instance=Platine-1
   1,  68,  69, 144, 312
*Elset, elset=_Matrize_Kontakt_S4, internal, instance=WZ_Matrize-1
 116, 117, 118, 119, 120, 121, 122, 123, 124, 125, 126, 127, 128, 129, 130, 131
 132, 133, 134, 135, 136, 137, 138, 139, 140, 141, 142, 143, 144, 145, 146, 147
 148, 149, 150, 151, 237, 250, 263, 276, 289
*Elset, elset=_Matrize_Kontakt_S6, internal, instance=WZ_Matrize-1, generate
 152,  162,    1
*Surface, type=ELEMENT, name=Matrize_Kontakt
_Matrize_Kontakt_S4, S4
_Matrize_Kontakt_S6, S6
*Elset, elset=_Platine_oben_S5, internal, instance=Platine-1, generate
   1,  144,    1
*Elset, elset=_Platine_oben_S1, internal, instance=Platine-1, generate
 312,  334,    1
*Surface, type=ELEMENT, name=Platine_oben
_Platine_oben_S5, S5
_Platine_oben_S1, S1
*Elset, elset=_Platine_oben_unten_S5, internal, instance=Platine-1
   1,   2,   3,   4,   5,   6,   7,   8,   9,  10,  11,  12,  13,  14,  15,  16
  17,  18,  19,  20,  21,  22,  23,  24,  25,  26,  27,  28,  29,  30,  31,  32
  33,  34,  35,  36,  37,  38,  39,  40,  41,  42,  43,  44,  45,  46,  47,  48
  49,  50,  51,  52,  53,  54,  55,  56,  57,  58,  59,  60,  61,  62,  63,  64
  65,  66,  67,  68,  69,  70,  71,  72,  73,  74,  75,  76,  77,  78,  79,  80
  81,  82,  83,  84,  85,  86,  87,  88,  89,  90,  91,  92,  93,  94,  95,  96
  97,  98,  99, 100, 101, 102, 103, 104, 105, 106, 107, 108, 109, 110, 111, 112
 113, 114, 115, 116, 117, 118, 119, 120, 121, 122, 123, 124, 125, 126, 127, 128
 129, 130, 131, 132, 133, 134, 135, 136, 137, 138, 139, 140, 141, 142, 143, 144
 213, 214, 215, 216, 217, 218, 219, 220, 221, 222, 223, 224, 225, 226, 227, 228
 229, 230, 231, 232, 233, 234, 235
*Elset, elset=_Platine_oben_unten_S2, internal, instance=Platine-1
 145, 146, 147, 148, 149, 150, 151, 152, 153, 154, 155, 156, 157, 158, 159, 160
 161, 162, 163, 164, 165, 166, 167, 168, 169, 170, 171, 172, 173, 174, 175, 176
 177, 178, 179, 180, 181, 182, 183, 184, 185, 186, 187, 188, 189, 190, 191, 192
 193, 194, 195, 196, 197, 198, 199, 200, 201, 202, 203, 204, 205, 206, 207, 208
 209, 210, 211, 212, 236, 237, 238, 239, 240, 241, 242, 243, 244, 245, 246, 247
 248, 249, 250, 251, 252, 253, 254, 255, 256, 257, 258, 259, 260, 261, 262, 263
 264, 265, 266, 267, 268, 269, 270, 271, 272, 273, 274, 275, 276, 277, 278, 279
 280, 281, 282, 283, 284, 285, 286, 287, 288, 289, 290, 291, 292, 293, 294, 295
 296, 297, 298, 299, 300, 301, 302, 303, 304, 305, 306, 307, 308, 309, 310, 311
*Elset, elset=_Platine_oben_unten_S1, internal, instance=Platine-1, generate
 312,  334,    1
*Surface, type=ELEMENT, name=Platine_oben_unten
_Platine_oben_unten_S5, S5
_Platine_oben_unten_S2, S2
_Platine_oben_unten_S1, S1
*Elset, elset=_Platine_unten_S2, internal, instance=Platine-1
 145, 146, 147, 148, 149, 150, 151, 152, 153, 154, 155, 156, 157, 158, 159, 160
 161, 162, 163, 164, 165, 166, 167, 168, 169, 170, 171, 172, 173, 174, 175, 176
 177, 178, 179, 180, 181, 182, 183, 184, 185, 186, 187, 188, 189, 190, 191, 192
 193, 194, 195, 196, 197, 198, 199, 200, 201, 202, 203, 204, 205, 206, 207, 208
 209, 210, 211, 212, 236, 237, 238, 239, 240, 241, 242, 243, 244, 245, 246, 247
 248, 249, 250, 251, 252, 253, 254, 255, 256, 257, 258, 259, 260, 261, 262, 263
 264, 265, 266, 267, 268, 269, 270, 271, 272, 273, 274, 275, 276, 277, 278, 279
 280, 281, 282, 283, 284, 285, 286, 287, 288, 289, 290, 291, 292, 293, 294, 295
 296, 297, 298, 299, 300, 301, 302, 303, 304, 305, 306, 307, 308, 309, 310, 311
*Elset, elset=_Platine_unten_S5, internal, instance=Platine-1, generate
 213,  235,    1
*Surface, type=ELEMENT, name=Platine_unten
_Platine_unten_S2, S2
_Platine_unten_S5, S5
*Elset, elset=_Stempel_Kontakt_S5, internal, instance=WZ_Stempel-1, generate
 102,  149,    1
*Surface, type=ELEMENT, name=Stempel_Kontakt
_Stempel_Kontakt_S5, S5
*Elset, elset=_WZ_Kopfflaeche_S2, internal, instance=WZ_Stempel-1, generate
 211,  219,    1
*Surface, type=ELEMENT, name=WZ_Kopfflaeche
_WZ_Kopfflaeche_S2, S2
*End Assembly
*Amplitude, name=Amp-Presskraft
             0.,              0.,            0.01,             0.5,            0.05,              1.
*Amplitude, name=Amp-Stempelweg_Y
             0.,              0.,            0.45,              1.
** 
** MATERIALS
** 
*Material, name=Stahlblech_22MnB5_Al-Si
*Conductivity
 30.7,  20.
 31.1, 100.
  30., 200.
 27.5, 300.
 21.7, 400.
 23.6, 600.
 25.6, 800.
 27.6,1000.
*Density
 7.83e-09,
*Elastic
212000., 0.284,   20.
207000., 0.286,  100.
199000., 0.289,  200.
193000., 0.293,  300.
166000., 0.298,  400.
158000., 0.303,  500.
150000.,  0.31,  600.
142000., 0.317,  700.
134000., 0.325,  800.
126000., 0.334,  900.
118000., 0.343, 1000.
*Expansion, zero=20.
 1.3e-05,
*Latent Heat
 5.85e+10,350.,375.
*Specific Heat
 4.44e+08,   0.
 4.87e+08, 100.
  5.2e+08, 200.
 5.44e+08, 300.
 5.61e+08, 400.
 5.73e+08, 500.
 5.81e+08, 600.
 5.86e+08, 700.
  5.9e+08, 800.
 5.96e+08, 900.
 6.03e+08,1000.
*Material, name=Werkzeugstahl_1_2367
*Conductivity
 29.8, 20.
 33.9,350.
 35.3,700.
*Density
 7.9e-09,
*Elastic
210000., 0.3
*Specific Heat
 5.033e+08,
** 
** INTERACTION PROPERTIES
** 
*Surface Interaction, name=Kontakt_WS-WZ
1.,
*Friction, slip tolerance=0.005
 0.45,
*Gap Conductance
 0.708,  0.
 0.548, 0.1
 0.437, 0.2
  0.36, 0.3
 0.306, 0.4
 0.268, 0.5
 0.242, 0.6
 0.224, 0.7
 0.211, 0.8
 0.202, 0.9
 0.196,  1.
 0.192, 1.1
 0.189, 1.2
 0.187, 1.3
 0.185, 1.4
 0.184, 1.5
 0.183, 1.6
 0.183, 1.7
 0.183, 1.8
 0.182, 1.9
 0.182,  2.
    0.,  3.
*Gap Conductance, pressure
 0.609, 0.
 2.371, 2.
 2.537, 4.
 2.642, 6.
 2.719, 8.
 2.781,10.
 2.833,12.
 2.878,14.
 2.918,16.
 2.954,18.
 2.986,20.
 3.016,22.
 3.043,24.
 3.068,26.
 3.092,28.
 3.115,30.
 3.136,32.
 3.156,34.
 3.175,36.
 3.193,38.
  3.21,40.
*Gap Heat Generation
1., 0.5
** 
** PHYSICAL CONSTANTS
** 
*Physical Constants, absolute zero=-273.15, stefan boltzmann=5.67037e-11
** 
** BOUNDARY CONDITIONS
** 
** Name: Matrize_X Type: Displacement/Rotation
*Boundary
Matrize_UX, 1, 1
** Name: Matrize_Y Type: Displacement/Rotation
*Boundary
Matrize_UY, 2, 2
** Name: Matrize_Z Type: Displacement/Rotation
*Boundary
Matrize_UZ, 3, 3
** Name: Platine_Mitte Type: Displacement/Rotation
*Boundary
Platine_mittenschnitt, 1, 1
** Name: Platine_Scheibenschnitt-1 Type: Displacement/Rotation
*Boundary
Platine_Scheibenschnitt-1, 3, 3
** Name: Stempel_X Type: Displacement/Rotation
*Boundary
Stempel_UX, 1, 1
** Name: Stempel_Y Type: Displacement/Rotation
*Boundary
Stempel_UY, 2, 2
** Name: Stempel_Z Type: Displacement/Rotation
*Boundary
Stempel_UZ, 3, 3
** 
** INTERACTIONS
** 
** Interaction: Surf2Surf_oben
*Contact Pair, interaction=Kontakt_WS-WZ, type=SURFACE TO SURFACE
Platine_oben, Stempel_Kontakt
** Interaction: Surf2Surf_unten
*Contact Pair, interaction=Kontakt_WS-WZ, type=SURFACE TO SURFACE
Platine_unten, Matrize_Kontakt
** ----------------------------------------------------------------
** 
** STEP: Step-7
** 
*Step, name=Step-7, nlgeom=NO, inc=30
Kontaktsuche-1, U2 gesperrt
*Coupled Temperature-displacement, creep=none, deltmx=10.
2e-06, 0.01, 1e-08, 0.005
** 
** OUTPUT REQUESTS
** 
*Restart, write, frequency=0
** 
** FIELD OUTPUT: F-Output-1
** 
*Output, field, time interval=0.1
*Node Output
CF, NT, RF, RFL, U
*Element Output, directions=YES
HFL, LE, S, TEMP
*Contact Output
CDISP, CSTRESS
** 
** HISTORY OUTPUT: H-Output-1
** 
*Output, history, variable=PRESELECT
*End Step
** ----------------------------------------------------------------
** 
** STEP: Step-8
** 
*Step, name=Step-8, nlgeom=NO, inc=20
Kontaktsuche-2, Presskraft aufbringen
*Coupled Temperature-displacement, creep=none, deltmx=10.
0.01, 0.09, 1e-08, 0.03
** 
** BOUNDARY CONDITIONS
** 
** Name: Matrize_X Type: Displacement/Rotation
*Boundary, op=NEW
Matrize_UX, 1, 1
** Name: Matrize_Y Type: Displacement/Rotation
*Boundary, op=NEW
Matrize_UY, 2, 2
** Name: Matrize_Z Type: Displacement/Rotation
*Boundary, op=NEW
Matrize_UZ, 3, 3
** Name: Platine_Mitte Type: Displacement/Rotation
*Boundary, op=NEW
Platine_mittenschnitt, 1, 1
** Name: Platine_Scheibenschnitt-1 Type: Displacement/Rotation
*Boundary, op=NEW
Platine_Scheibenschnitt-1, 3, 3
** Name: Stempel_X Type: Displacement/Rotation
*Boundary, op=NEW
Stempel_UX, 1, 1
** Name: Stempel_Y Type: Displacement/Rotation
*Boundary, op=NEW
** Name: Stempel_Z Type: Displacement/Rotation
*Boundary, op=NEW
Stempel_UZ, 3, 3
** 
** LOADS
** 
** Name: Presskraft   Type: Pressure
*Dsload
WZ_Kopfflaeche, P, 18.0
** 
** OUTPUT REQUESTS
** 
*Restart, write, frequency=0
** 
** FIELD OUTPUT: F-Output-1
** 
*Output, field, time interval=0.1
*Node Output
CF, NT, RF, RFL, U
*Element Output, directions=YES
HFL, LE, S, TEMP
*Contact Output
CDISP, CSTRESS
** 
** HISTORY OUTPUT: H-Output-1
** 
*Output, history, variable=PRESELECT
*End Step
** ----------------------------------------------------------------
** 
** STEP: Step-9
** 
*Step, name=Step-9, nlgeom=NO, inc=300
Kuehlphase
*Coupled Temperature-displacement, creep=none, deltmx=10.
0.01, 9.9, 0.001, 0.1
** 
** OUTPUT REQUESTS
** 
*Restart, write, frequency=0
** 
** FIELD OUTPUT: F-Output-1
** 
*Output, field, time interval=0.1
*Node Output
CF, NT, RF, RFL, U
*Element Output, directions=YES
HFL, LE, S, TEMP
*Contact Output
CDISP, CSTRESS
** 
** HISTORY OUTPUT: H-Output-1
** 
*Output, history, variable=PRESELECT
*End Step
** ----------------------------------------------------------------
** 
** STEP: Step-10
** 
*Step, name=Step-10, nlgeom=NO
Form oeffnen
*Coupled Temperature-displacement, creep=none, deltmx=10.
1e-05, 1., 1e-20, 0.1
** 
** BOUNDARY CONDITIONS
** 
** Name: Stempel_heben Type: Displacement/Rotation
*Boundary
Stempel_UY, 2, 2, 150.
** 
** LOADS
** 
** Name: Presskraft   Type: Pressure
*Dsload, op=NEW
** 
** OUTPUT REQUESTS
** 
*Restart, write, frequency=0
** 
** FIELD OUTPUT: F-Output-1
** 
*Output, field, time interval=0.1
*Node Output
CF, NT, RF, RFL, U
*Element Output, directions=YES
HFL, LE, S, TEMP
*Contact Output
CDISP, CSTRESS
** 
** HISTORY OUTPUT: H-Output-1
** 
*Output, history, variable=PRESELECT
*End Step
** ----------------------------------------------------------------
** 
** STEP: Step-11
** 
*Step, name=Step-11, nlgeom=NO
Entformen-1
*Coupled Temperature-displacement, creep=none, deltmx=10.
0.02, 0.1, 0.001, 0.025
** 
** BOUNDARY CONDITIONS
** 
** Name: Platine_entformung Type: Displacement/Rotation
*Boundary
mod_auswerfer, 2, 2, 148.
** 
** INTERACTIONS
** 
** Interaction: Surf2Surf_unten
*Model Change, type=CONTACT PAIR, remove
Platine_unten, Matrize_Kontakt
** 
** OUTPUT REQUESTS
** 
*Restart, write, frequency=0
** 
** FIELD OUTPUT: F-Output-1
** 
*Output, field, time interval=0.1
*Node Output
CF, NT, RF, RFL, U
*Element Output, directions=YES
HFL, LE, S, TEMP
*Contact Output
CDISP, CSTRESS
** 
** HISTORY OUTPUT: H-Output-1
** 
*Output, history, variable=PRESELECT
*End Step
** ----------------------------------------------------------------
** 
** STEP: Step-12
** 
*Step, name=Step-12, nlgeom=NO
Entformen-2
*Coupled Temperature-displacement, creep=none, deltmx=10., stabilize=0.0002, allsdtol=0.05, continue=NO
0.001, 0.1, 1e-10, 0.01
** 
** BOUNDARY CONDITIONS
** 
** Name: Platine_entformung Type: Displacement/Rotation
*Boundary
mod_auswerfer, 2, 2, 147.5
** 
** OUTPUT REQUESTS
** 
*Restart, write, frequency=0
** 
** FIELD OUTPUT: F-Output-1
** 
*Output, field, time interval=0.1
*Node Output
CF, NT, RF, RFL, U
*Element Output, directions=YES
HFL, LE, S, TEMP
*Contact Output
CDISP, CSTRESS
** 
** HISTORY OUTPUT: H-Output-1
** 
*Output, history, variable=PRESELECT
*End Step
** ----------------------------------------------------------------
** 
** STEP: Step-13
** 
*Step, name=Step-13, nlgeom=NO, inc=20
Restkuehlen
*Coupled Temperature-displacement, creep=none, deltmx=10.
0.5, 1., 0.1, 1.
** 
** BOUNDARY CONDITIONS
** 
** Name: Platine_entformung Type: Displacement/Rotation
*Boundary
mod_auswerfer, 2, 2, 75.
** 
** INTERACTIONS
** 
** Interaction: Surf2Surf_oben
*Model Change, type=CONTACT PAIR, remove
Platine_oben, Stempel_Kontakt
** 
** OUTPUT REQUESTS
** 
*Restart, write, frequency=0
** 
** FIELD OUTPUT: F-Output-1
** 
*Output, field
*Node Output
CF, NT, RF, RFL, U
*Element Output, directions=YES
HFL, LE, S, TEMP
*Contact Output
CDISP, CSTRESS
** 
** HISTORY OUTPUT: H-Output-1
** 
*Output, history, variable=PRESELECT
*End Step
** ----------------------------------------------------------------
** 
** STEP: Step-14
** 
*Step, name=Step-14, nlgeom=NO, inc=200
Abklingen
*Coupled Temperature-displacement, creep=none, deltmx=10.
3., 240., 1., 24.
** 
** BOUNDARY CONDITIONS
** 
** Name: Matrize_X Type: Displacement/Rotation
*Boundary, op=NEW
Matrize_UX, 1, 1
** Name: Matrize_Y Type: Displacement/Rotation
*Boundary, op=NEW
Matrize_UY, 2, 2
** Name: Matrize_Z Type: Displacement/Rotation
*Boundary, op=NEW
Matrize_UZ, 3, 3
** Name: Platine_Mitte Type: Displacement/Rotation
*Boundary, op=NEW
Platine_mittenschnitt, 1, 1
** Name: Platine_Scheibenschnitt-1 Type: Displacement/Rotation
*Boundary, op=NEW
Platine_Scheibenschnitt-1, 3, 3
** Name: Platine_entformung Type: Displacement/Rotation
*Boundary, op=NEW
** Name: Stempel_X Type: Displacement/Rotation
*Boundary, op=NEW
Stempel_UX, 1, 1
** Name: Stempel_Z Type: Displacement/Rotation
*Boundary, op=NEW
Stempel_UZ, 3, 3
** Name: Stempel_heben Type: Displacement/Rotation
*Boundary, op=NEW
Stempel_UY, 2, 2, 150.
** Name: hold_WS Type: Displacement/Rotation
*Boundary, op=NEW
Platine_Auswerfer, 2, 2, 75.
** 
** INTERACTIONS
** 
** Interaction: Platine_rad
*Sradiate
Platine_oben_unten, R, 0., 1.
** 
** OUTPUT REQUESTS
** 
*Restart, write, frequency=0
** 
** FIELD OUTPUT: F-Output-1
** 
*Output, field
*Node Output
CF, NT, RF, RFL, U
*Element Output, directions=YES
HFL, LE, S, TEMP
*Contact Output
CDISP, CSTRESS
** 
** FIELD OUTPUT: Oberseite_Node_Coord
** 
*Output, field, frequency=99999
*Node Output, nset=Blechoberseite
COORD, 
** 
** FIELD OUTPUT: Unterseite_Node_Coord
** 
*Node Output, nset=Blechunterseite
COORD, 
** 
** HISTORY OUTPUT: H-Output-1
** 
*Output, history, variable=PRESELECT
*End Step
