** 1/3 des Modells zum presshaerten eines Hutprofils
** Loesungsstrategie: Implizit
** Verfahrensschritte: Aufwaermen - Platine klemmen
*Heading
** Job name: WTP-M1_WS800.0_WZ120.0 Model name: Model-1_implizit
** Generated by: Abaqus/CAE 2021.HFs8
*Preprint, echo=NO, model=NO, history=NO, contact=NO
**
** PARTS
**
*Part, name=Platine
*Node
      1,         -41.,         1.75,           0.
      2,         -41.,         1.75,         0.75
      3,         -41.,          2.5,         0.75
      4,         -41.,          2.5,           0.
      5,          10.,         1.75,         0.75
      6,          10.,          2.5,         0.75
      7,          10.,          2.5,           0.
      8,          10.,         1.75,           0.
      9,         -98.,         1.75,         0.75
     10,         -98.,          2.5,         0.75
     11,         -98.,          2.5,           0.
     12,         -98.,         1.75,           0.
     13,         -41.,           1.,         0.75
     14,         -41.,           1.,           0.
     15,          10.,           1.,           0.
     16,          10.,           1.,         0.75
     17,         -98.,           1.,         0.75
     18,         -98.,           1.,           0.
     19,        -115.,         1.75,         0.75
     20,        -115.,           1.,         0.75
** ... 988 like lines cut
*Element, type=C3D8T
 1, 158, 226, 225,  25,   1,   2,   3,   4
 2, 157, 227, 224,  26, 158, 226, 225,  25
 3, 156, 228, 223,  27, 157, 227, 224,  26
 4, 155, 229, 222,  28, 156, 228, 223,  27
 5, 154, 230, 221,  29, 155, 229, 222,  28
 6, 153, 231, 220,  30, 154, 230, 221,  29
 7, 152, 232, 219,  31, 153, 231, 220,  30
 8, 151, 233, 218,  32, 152, 232, 219,  31
 9, 150, 234, 217,  33, 151, 233, 218,  32
10, 149, 235, 216,  34, 150, 234, 217,  33
11, 148, 236, 215,  35, 149, 235, 216,  34
12, 147, 237, 214,  36, 148, 236, 215,  35
13, 146, 238, 213,  37, 147, 237, 214,  36
14, 145, 239, 212,  38, 146, 238, 213,  37
15, 144, 240, 211,  39, 145, 239, 212,  38
16, 143, 241, 210,  40, 144, 240, 211,  39
17, 142, 242, 209,  41, 143, 241, 210,  40
18, 141, 243, 208,  42, 142, 242, 209,  41
19, 140, 244, 207,  43, 141, 243, 208,  42
20, 139, 245, 206,  44, 140, 244, 207,  43
** ... 314 like lines cut
*Nset, nset=Platine, generate
    1,  1008,     1
*Elset, elset=Platine, generate
   1,  334,    1
** Section: Platine_Solidsection
*Solid Section, elset=Platine, material=Stahlblech_22MnB5_Al-Si
,
*End Part
**  
*Part, name=WZ_Matrize
*Node
      1,   -35.394886,   24.1473389,   0.75999999
      2,  -32.7617302,    24.584589,   0.75999999
      3,  -33.5880623,   29.2709446,   0.75999999
      4,   -35.696022,   27.9145126,   0.75999999
      5,  -32.7617302,    24.584589, -9.53674295e-09
      6,   -35.394886,   24.1473389, -9.53674295e-09
      7,   -35.696022,   27.9145126, -9.53674295e-09
      8,  -33.5880623,   29.2709446, -9.53674295e-09
      9,   -41.274498,   29.0809212,           0.
     10,   -41.274498,        31.75,           0.
     11,  -36.5424843,        31.75,           0.
     12,  -37.5122643,   29.4385204,           0.
     13,   -41.274498,        31.75,   0.75999999
     14,   -41.274498,   29.0809212,   0.75999999
     15,  -37.5122643,   29.4385204,   0.75999999
     16,  -36.5424843,        31.75,   0.75999999
     17,         -75.,       -44.25,   0.75999999
     18,  -63.0597839,       -44.25,   0.75999999
     19,  -63.0597839,  -29.3992348,   0.75999999
     20,         -75.,  -29.3992348,   0.75999999
** ... 744 like lines cut
*Element, type=C3D8T
1, 178, 177,   2,   1, 179, 180,   5,   6
2,   4,   3, 177, 178,   7,   8, 180, 179
3, 182, 181,  10,   9, 183, 184,  13,  14
4,  12,  11, 181, 182,  15,  16, 184, 183
5, 186, 185,  18,  17, 188, 187,  23,  24
6,  20,  19, 185, 186,  21,  22, 187, 188
 7,  26,  25, 191, 189,  33,  34, 194, 193
 8,  27, 189, 191, 190,  32, 193, 194, 192
 9,  28, 190, 191,  29,  31, 192, 194,  30
10, 198, 195,  30,  31, 201, 200,  29,  28
11, 197, 196, 195, 198, 202, 199, 200, 201
12,  36,  35, 196, 197,  37,  38, 199, 202
13, 546, 545, 207, 547, 555, 554, 212, 556
14, 545, 546, 544, 543, 554, 555, 553, 552
15, 203, 549, 204,  40, 216, 558, 215,  45
16, 202, 545, 543, 201, 197, 554, 552, 198
17, 201, 543, 208,  28, 198, 552, 220,  31
18, 547, 551, 549, 550, 556, 560, 558, 559
19, 205, 551, 206,  41, 214, 560, 213,  44
20, 207, 545, 202,  37, 212, 554, 197,  36
** ... 297 like lines cut
*Node
    765,           0.,       -36.25,   0.75999999
*Nset, nset=WZ_Matrize-RefPt_, internal
765, 
*Nset, nset=Matrize, generate
   1,  764,    1
*Elset, elset=Matrize, generate
   1,  317,    1
** Section: Werkzeugstahl_Solidsection
*Solid Section, elset=Matrize, material=Werkzeugstahl_1_2367
,
*End Part
**  
*Part, name=WZ_Stempel
*Node
      1,   6.92490911,  -31.3600006,   0.75999999
      2,   1.49205434,  -31.3600006,   0.75999999
      3,   1.49205434,       -36.75,   0.75999999
      4,   6.92490911,       -36.75,   0.75999999
      5,   6.92490911,       -36.75, -9.53674295e-09
      6,   1.49205434,       -36.75, -9.53674295e-09
      7,   1.49205434,  -31.3600006, -9.53674295e-09
      8,   6.92490911,  -31.3600006, -9.53674295e-09
      9,  -5.50794554,       -36.75,   0.75999999
     10,  -5.50794554,  -35.3600006,   0.75999999
     11,  -6.97034264,  -35.0830879,   0.75999999
     12,   -7.6250906,       -36.75,   0.75999999
     13,  -5.50794554,  -35.3600006, -9.53674295e-09
     14,  -5.50794554,       -36.75, -9.53674295e-09
     15,   -7.6250906,       -36.75, -9.53674295e-09
     16,  -6.97034264,  -35.0830879, -9.53674295e-09
     17,  -1.50794566,  -31.3600006,   0.75999999
     18,  -1.50794566,  -31.3600006, -9.53674295e-09
     19,  -6.72348309,  -24.4663448,   0.75999999
     20,  -6.20253849,  -27.4207687,   0.75999999
** ... 542 like lines cut
*Element, type=C3D8T
1, 156, 155,   2,   1, 158, 157,   7,   8
2,   4,   3, 155, 156,   5,   6, 157, 158
3, 12, 11, 10,  9, 15, 16, 13, 14
4,   2, 155, 159,  17,   7, 157, 162,  18
5,   3, 160, 159, 155,   6, 161, 162, 157
6, 159, 160,   9,  10, 162, 161,  14,  13
7, 164, 163,   2,  17, 165, 166,   7,  18
8,  20,  19, 163, 164,  21,  22, 166, 165
 9, 26, 25, 24, 23, 29, 30, 27, 28
10, 180, 167,  23,  24, 188, 187,  28,  27
11, 179, 168, 167, 180, 189, 186, 187, 188
12, 178, 169, 168, 179, 190, 185, 186, 189
13, 177, 170, 169, 178, 191, 184, 185, 190
14, 176, 171, 170, 177, 192, 183, 184, 191
15, 175, 172, 171, 176, 193, 182, 183, 192
16, 174, 173, 172, 175, 194, 181, 182, 193
17,  11,  12, 173, 174,  16,  15, 181, 194
18, 197, 195,  19,  20, 200, 199,  22,  21
19,  26, 196, 197,  25,  29, 198, 200,  30
20,  31, 195, 197, 196,  32, 199, 200, 198
** ... 199 like lines cut
*Node
    563,   6.92490911,       -38.75,   0.75999999
*Nset, nset=WZ_Stempel-RefPt_, internal
563, 
*Nset, nset=Stempel, generate
   1,  562,    1
*Elset, elset=Stempel, generate
   1,  219,    1
** Section: Werkzeugstahl_Solidsection
*Solid Section, elset=Stempel, material=Werkzeugstahl_1_2367
,
*End Part
**  
**
** ASSEMBLY
**
*Assembly, name=Assembly
**  
*Instance, name=Platine-1, part=Platine
        -10.,         72.5,        -0.75
*End Instance
**  
*Instance, name=WZ_Matrize-1, part=WZ_Matrize
          0.,        34.75,        -0.76
*End Instance
**  
*Instance, name=WZ_Stempel-1, part=WZ_Stempel
-6.924909294825,       118.75,        -0.76
*End Instance
**  
*Nset, nset=Platine_Auflage, instance=Platine-1
 13, 14
*Elset, elset=Platine_Auflage, instance=Platine-1
 145, 236
*Nset, nset=Platine_Auswerfer, instance=Platine-1
 10, 11
*Elset, elset=Platine_Auswerfer, instance=Platine-1
 144, 312
*Nset, nset=Platine_Gegenkraft, instance=Platine-1
 13, 14
*Nset, nset=Platine_Scheibenschnitt-1, instance=Platine-1
   2,   3,   5,   6,   9,  10,  13,  16,  17,  19,  20,  23, 159, 160, 161, 162
 163, 164, 165, 166, 167, 168, 169, 170, 171, 172, 173, 174, 175, 176, 177, 178
 179, 180, 181, 182, 183, 184, 185, 186, 187, 188, 189, 190, 191, 192, 193, 194
 195, 196, 197, 198, 199, 200, 201, 202, 203, 204, 205, 206, 207, 208, 209, 210
 211, 212, 213, 214, 215, 216, 217, 218, 219, 220, 221, 222, 223, 224, 225, 226
 227, 228, 229, 230, 231, 232, 233, 234, 235, 236, 237, 238, 239, 240, 241, 242
 243, 244, 245, 246, 247, 248, 249, 250, 251, 252, 253, 254, 255, 256, 257, 258
 259, 260, 261, 262, 263, 264, 265, 266, 267, 268, 269, 270, 271, 272, 273, 274
 275, 276, 277, 278, 279, 280, 281, 282, 283, 284, 285, 286, 287, 288, 289, 290
 291, 292, 443, 444, 445, 446, 447, 448, 449, 450, 451, 452, 453, 454, 455, 456
 457, 458, 459, 460, 461, 462, 463, 464, 465, 466, 467, 468, 469, 470, 471, 472
 473, 474, 475, 476, 477, 478, 479, 480, 481, 482, 483, 484, 485, 486, 487, 488
 489, 490, 491, 492, 493, 494, 495, 496, 497, 498, 499, 500, 501, 502, 503, 504
 505, 506, 507, 508, 509, 510, 511, 512, 513, 514, 515, 516, 517, 518, 519, 520
 521, 522, 523, 524, 525, 526, 527, 528, 529, 530, 531, 532, 533, 534, 535, 536
 537, 538, 539, 540, 541, 542, 543, 544, 545, 546, 547, 548, 549, 550, 551, 552
 553, 554, 555, 556, 557, 558, 559, 560, 561, 562, 563, 564, 565, 566, 567, 568
 569, 570, 571, 572, 573, 574, 575, 576, 577, 578, 579, 580, 581, 582, 583, 584
 585, 586, 587, 588, 589, 590, 591, 592, 660, 661, 662, 663, 664, 665, 666, 667
 668, 669, 670, 671, 672, 673, 674, 675, 676, 677, 678, 679, 680, 681, 682, 683
** ... 12 like lines cut
*Elset, elset=Platine_Scheibenschnitt-1, instance=Platine-1, generate
   1,  334,    1
*Nset, nset=Platine_Scheibenschnitt-2, instance=Platine-1
    1,    4,    7,    8,   11,   12,   14,   15,   18,   21,   22,   24,   25,   26,   27,   28
   29,   30,   31,   32,   33,   34,   35,   36,   37,   38,   39,   40,   41,   42,   43,   44
   45,   46,   47,   48,   49,   50,   51,   52,   53,   54,   55,   56,   57,   58,   59,   60
   61,   62,   63,   64,   65,   66,   67,   68,   69,   70,   71,   72,   73,   74,   75,   76
   77,   78,   79,   80,   81,   82,   83,   84,   85,   86,   87,   88,   89,   90,   91,   92
   93,   94,   95,   96,   97,   98,   99,  100,  101,  102,  103,  104,  105,  106,  107,  108
  109,  110,  111,  112,  113,  114,  115,  116,  117,  118,  119,  120,  121,  122,  123,  124
  125,  126,  127,  128,  129,  130,  131,  132,  133,  134,  135,  136,  137,  138,  139,  140
  141,  142,  143,  144,  145,  146,  147,  148,  149,  150,  151,  152,  153,  154,  155,  156
  157,  158,  293,  294,  295,  296,  297,  298,  299,  300,  301,  302,  303,  304,  305,  306
  307,  308,  309,  310,  311,  312,  313,  314,  315,  316,  317,  318,  319,  320,  321,  322
  323,  324,  325,  326,  327,  328,  329,  330,  331,  332,  333,  334,  335,  336,  337,  338
  339,  340,  341,  342,  343,  344,  345,  346,  347,  348,  349,  350,  351,  352,  353,  354
  355,  356,  357,  358,  359,  360,  361,  362,  363,  364,  365,  366,  367,  368,  369,  370
  371,  372,  373,  374,  375,  376,  377,  378,  379,  380,  381,  382,  383,  384,  385,  386
  387,  388,  389,  390,  391,  392,  393,  394,  395,  396,  397,  398,  399,  400,  401,  402
  403,  404,  405,  406,  407,  408,  409,  410,  411,  412,  413,  414,  415,  416,  417,  418
  419,  420,  421,  422,  423,  424,  425,  426,  427,  428,  429,  430,  431,  432,  433,  434
  435,  436,  437,  438,  439,  440,  441,  442,  593,  594,  595,  596,  597,  598,  599,  600
  601,  602,  603,  604,  605,  606,  607,  608,  609,  610,  611,  612,  613,  614,  615,  616
** ... 12 like lines cut
*Elset, elset=Platine_Scheibenschnitt-2, instance=Platine-1, generate
   1,  334,    1
*Nset, nset=Platine_mittenschnitt, instance=Platine-1
  5,  6,  7,  8, 15, 16
*Elset, elset=Platine_mittenschnitt, instance=Platine-1
  68, 212
*Nset, nset=RP_Matrize, instance=WZ_Matrize-1
 765,
*Nset, nset=RP_Stempel, instance=WZ_Stempel-1
 563,
*Nset, nset=WZ_All, instance=WZ_Matrize-1, generate
   1,  764,    1
*Nset, nset=WZ_All, instance=WZ_Stempel-1, generate
   1,  562,    1
*Elset, elset=WZ_All, instance=WZ_Matrize-1, generate
   1,  317,    1
*Elset, elset=WZ_All, instance=WZ_Stempel-1, generate
   1,  219,    1
*Nset, nset=WZ_Kuehlbohrungen, instance=WZ_Matrize-1
  29,  30,  35,  38,  59,  60,  61,  62,  67,  70,  72,  73,  75,  78,  79,  82
  84,  85,  87,  90,  96,  97, 195, 196, 199, 200, 243, 244, 255, 256, 263, 265
 301, 302, 307, 310, 329, 331
*Nset, nset=WZ_Kuehlbohrungen, instance=WZ_Stempel-1
  17,  18,  20,  21,  49,  50,  51,  52,  53,  60,  74,  80,  93,  98, 145, 146
 147, 148, 164, 165, 239, 240, 251, 252, 417, 418, 421, 424
*Elset, elset=WZ_Kuehlbohrungen, instance=WZ_Matrize-1
  10,  11,  12,  42,  43,  50,  51,  55,  56,  68,  69,  76,  77, 103, 104
*Elset, elset=WZ_Kuehlbohrungen, instance=WZ_Stempel-1
   7,   8,  51,  52,  59,  60, 167, 168, 179, 180
*Elset, elset=_Matrize_Kontakt_S4, internal, instance=WZ_Matrize-1
 116, 117, 118, 119, 120, 121, 122, 123, 124, 125, 126, 127, 128, 129, 130, 131
 132, 133, 134, 135, 136, 137, 138, 139, 140, 141, 142, 143, 144, 145, 146, 147
 148, 149, 150, 151, 237, 250, 263, 276, 289
*Elset, elset=_Matrize_Kontakt_S6, internal, instance=WZ_Matrize-1, generate
 152,  162,    1
*Surface, type=ELEMENT, name=Matrize_Kontakt
_Matrize_Kontakt_S4, S4
_Matrize_Kontakt_S6, S6
*Elset, elset=_Platine_oben_S5, internal, instance=Platine-1, generate
   1,  144,    1
*Elset, elset=_Platine_oben_S1, internal, instance=Platine-1, generate
 312,  334,    1
*Surface, type=ELEMENT, name=Platine_oben
_Platine_oben_S5, S5
_Platine_oben_S1, S1
*Elset, elset=_Platine_oben_unten_S5, internal, instance=Platine-1
   1,   2,   3,   4,   5,   6,   7,   8,   9,  10,  11,  12,  13,  14,  15,  16
  17,  18,  19,  20,  21,  22,  23,  24,  25,  26,  27,  28,  29,  30,  31,  32
  33,  34,  35,  36,  37,  38,  39,  40,  41,  42,  43,  44,  45,  46,  47,  48
  49,  50,  51,  52,  53,  54,  55,  56,  57,  58,  59,  60,  61,  62,  63,  64
  65,  66,  67,  68,  69,  70,  71,  72,  73,  74,  75,  76,  77,  78,  79,  80
  81,  82,  83,  84,  85,  86,  87,  88,  89,  90,  91,  92,  93,  94,  95,  96
  97,  98,  99, 100, 101, 102, 103, 104, 105, 106, 107, 108, 109, 110, 111, 112
 113, 114, 115, 116, 117, 118, 119, 120, 121, 122, 123, 124, 125, 126, 127, 128
 129, 130, 131, 132, 133, 134, 135, 136, 137, 138, 139, 140, 141, 142, 143, 144
 213, 214, 215, 216, 217, 218, 219, 220, 221, 222, 223, 224, 225, 226, 227, 228
 229, 230, 231, 232, 233, 234, 235
*Elset, elset=_Platine_oben_unten_S2, internal, instance=Platine-1
 145, 146, 147, 148, 149, 150, 151, 152, 153, 154, 155, 156, 157, 158, 159, 160
 161, 162, 163, 164, 165, 166, 167, 168, 169, 170, 171, 172, 173, 174, 175, 176
 177, 178, 179, 180, 181, 182, 183, 184, 185, 186, 187, 188, 189, 190, 191, 192
 193, 194, 195, 196, 197, 198, 199, 200, 201, 202, 203, 204, 205, 206, 207, 208
 209, 210, 211, 212, 236, 237, 238, 239, 240, 241, 242, 243, 244, 245, 246, 247
 248, 249, 250, 251, 252, 253, 254, 255, 256, 257, 258, 259, 260, 261, 262, 263
 264, 265, 266, 267, 268, 269, 270, 271, 272, 273, 274, 275, 276, 277, 278, 279
 280, 281, 282, 283, 284, 285, 286, 287, 288, 289, 290, 291, 292, 293, 294, 295
 296, 297, 298, 299, 300, 301, 302, 303, 304, 305, 306, 307, 308, 309, 310, 311
*Elset, elset=_Platine_oben_unten_S1, internal, instance=Platine-1, generate
 312,  334,    1
*Surface, type=ELEMENT, name=Platine_oben_unten
_Platine_oben_unten_S5, S5
_Platine_oben_unten_S2, S2
_Platine_oben_unten_S1, S1
*Elset, elset=_Platine_unten_S2, internal, instance=Platine-1
 145, 146, 147, 148, 149, 150, 151, 152, 153, 154, 155, 156, 157, 158, 159, 160
 161, 162, 163, 164, 165, 166, 167, 168, 169, 170, 171, 172, 173, 174, 175, 176
 177, 178, 179, 180, 181, 182, 183, 184, 185, 186, 187, 188, 189, 190, 191, 192
 193, 194, 195, 196, 197, 198, 199, 200, 201, 202, 203, 204, 205, 206, 207, 208
 209, 210, 211, 212, 236, 237, 238, 239, 240, 241, 242, 243, 244, 245, 246, 247
 248, 249, 250, 251, 252, 253, 254, 255, 256, 257, 258, 259, 260, 261, 262, 263
 264, 265, 266, 267, 268, 269, 270, 271, 272, 273, 274, 275, 276, 277, 278, 279
 280, 281, 282, 283, 284, 285, 286, 287, 288, 289, 290, 291, 292, 293, 294, 295
 296, 297, 298, 299, 300, 301, 302, 303, 304, 305, 306, 307, 308, 309, 310, 311
*Elset, elset=_Platine_unten_S5, internal, instance=Platine-1, generate
 213,  235,    1
*Surface, type=ELEMENT, name=Platine_unten
_Platine_unten_S2, S2
_Platine_unten_S5, S5
*Elset, elset=_Stempel_Kontakt_S5, internal, instance=WZ_Stempel-1, generate
 102,  149,    1
*Surface, type=ELEMENT, name=Stempel_Kontakt
_Stempel_Kontakt_S5, S5
** Constraint: RB_Matrize
*Rigid Body, ref node=RP_Matrize, elset=WZ_Matrize-1.Matrize
** Constraint: RB_Stempel
*Rigid Body, ref node=RP_Stempel, elset=WZ_Stempel-1.Stempel
*End Assembly
** 
** MATERIALS
** 
*Material, name=Stahlblech_22MnB5_Al-Si
*Conductivity
 30.7,  20.
 31.1, 100.
  30., 200.
 27.5, 300.
 21.7, 400.
 23.6, 600.
 25.6, 800.
 27.6,1000.
*Density
 7.83e-09,
*Elastic
212000., 0.284,   20.
207000., 0.286,  100.
199000., 0.289,  200.
193000., 0.293,  300.
166000., 0.298,  400.
158000., 0.303,  500.
150000.,  0.31,  600.
142000., 0.317,  700.
134000., 0.325,  800.
126000., 0.334,  900.
118000., 0.343, 1000.
*Expansion, zero=20.
 1.3e-05,
*Specific Heat
 4.44e+08,  20.
 4.87e+08, 100.
  5.2e+08, 200.
 5.44e+08, 300.
 5.61e+08, 400.
 5.73e+08, 500.
 5.81e+08, 600.
 5.86e+08, 700.
  5.9e+08, 800.
 5.96e+08, 900.
 6.03e+08,1000.
*Material, name=Werkzeugstahl_1_2367
*Conductivity
 29.8, 20.
 33.9,350.
 35.3,700.
*Density
 7.9e-09,
*Elastic
210000., 0.3
*Specific Heat
 5.033e+08,
** 
** INTERACTION PROPERTIES
** 
*Surface Interaction, name=Kontakt_WS-WZ
1.,
*Friction, slip tolerance=0.005
 0.45,
*Gap Conductance
 0.708,  0.
 0.548, 0.1
 0.437, 0.2
  0.36, 0.3
 0.306, 0.4
 0.268, 0.5
 0.242, 0.6
 0.224, 0.7
 0.211, 0.8
 0.202, 0.9
 0.196,  1.
 0.192, 1.1
 0.189, 1.2
 0.187, 1.3
 0.185, 1.4
 0.184, 1.5
 0.183, 1.6
 0.183, 1.7
 0.183, 1.8
 0.182, 1.9
 0.182,  2.
    0.,  3.
*Gap Conductance, pressure
 0.609, 0.
 2.371, 2.
 2.537, 4.
 2.642, 6.
 2.719, 8.
 2.781,10.
 2.833,12.
 2.878,14.
 2.918,16.
 2.954,18.
 2.986,20.
 3.016,22.
 3.043,24.
 3.068,26.
 3.092,28.
 3.115,30.
 3.136,32.
 3.156,34.
 3.175,36.
 3.193,38.
  3.21,40.
*Gap Heat Generation
1., 0.5
** 
** PHYSICAL CONSTANTS
** 
*Physical Constants, absolute zero=-273.15, stefan boltzmann=5.67037e-11
** 
** BOUNDARY CONDITIONS
** 
** Name: Platine_Mitte Type: Displacement/Rotation
*Boundary
Platine_mittenschnitt, 1, 1
** Name: Platine_Scheibenschnitt-1 Type: Displacement/Rotation
*Boundary
Platine_Scheibenschnitt-1, 3, 3
** Name: WZ_Matrize Type: Displacement/Rotation
*Boundary
RP_Matrize, 1, 1
RP_Matrize, 2, 2
RP_Matrize, 3, 3
RP_Matrize, 4, 4
RP_Matrize, 5, 5
RP_Matrize, 6, 6
** Name: WZ_Stempel Type: Displacement/Rotation
*Boundary
RP_Stempel, 1, 1
RP_Stempel, 2, 2
RP_Stempel, 3, 3
RP_Stempel, 4, 4
RP_Stempel, 5, 5
RP_Stempel, 6, 6
** 
** PREDEFINED FIELDS
** 
** Name: Starttemperatur_Matrize   Type: Temperature
*Initial Conditions, type=TEMPERATURE
WZ_Matrize-1.Matrize, 120.0
** Name: Starttemperatur_Platine   Type: Temperature
*Initial Conditions, type=TEMPERATURE
Platine-1.Platine, 20.
** Name: Starttemperatur_Stempel   Type: Temperature
*Initial Conditions, type=TEMPERATURE
WZ_Stempel-1.Stempel, 120.0
** 
** INTERACTIONS
** 
** Interaction: Surf2Surf_oben
*Contact Pair, interaction=Kontakt_WS-WZ, type=SURFACE TO SURFACE
Platine_oben, Stempel_Kontakt
** Interaction: Surf2Surf_unten
*Contact Pair, interaction=Kontakt_WS-WZ, type=SURFACE TO SURFACE
Platine_unten, Matrize_Kontakt
** ----------------------------------------------------------------
** 
** STEP: Step-1
** 
*Step, name=Step-1, nlgeom=NO, inc=80
Aufwaermen der Platine
*Coupled Temperature-displacement, creep=none, deltmx=20.
6., 360., 0.6, 6.
** 
** BOUNDARY CONDITIONS
** 
** Name: Platine_Auflage Type: Displacement/Rotation
*Boundary
Platine_Auflage, 2, 2
** Name: Platine_Scheibenschnitt-1 Type: Displacement/Rotation
*Boundary
Platine_Scheibenschnitt-1, 3, 3, -0.002
** Name: WZ_Matrize Type: Displacement/Rotation
*Boundary
RP_Matrize, 1, 1, -0.04
** 
** LOADS
** 
** Name: Waermequelle   Type: Body heat flux
*Dflux
Platine-1.Platine, BF, 11.922521090894438
** 
** INTERACTIONS
** 
** Interaction: Surf2Surf_oben
*Model Change, type=CONTACT PAIR, remove
Platine_oben, Stempel_Kontakt
** Interaction: Surf2Surf_unten
*Model Change, type=CONTACT PAIR, remove
Platine_unten, Matrize_Kontakt
** 
** OUTPUT REQUESTS
** 
*Restart, write, frequency=0
** 
** FIELD OUTPUT: F-Output-1
** 
*Output, field
*Node Output
CF, NT, RF, RFL, U
*Element Output, directions=YES
E, HFL, S, TEMP
*Contact Output
CDISP, CSTRESS
** 
** HISTORY OUTPUT: H-Output-1
** 
*Output, history, variable=PRESELECT
*End Step
** ----------------------------------------------------------------
** 
** STEP: Step-2
** 
*Step, name=Step-2, nlgeom=NO, inc=30
Transfer der Platine
*Coupled Temperature-displacement, creep=none, deltmx=10.
0.35, 7., 0.035, 0.35
** 
** LOADS
** 
** Name: Waermequelle   Type: Body heat flux
*Dflux, op=NEW
** 
** INTERACTIONS
** 
** Interaction: Platine_Konvektion_oben
*Sfilm
Platine_oben, F, 20., 0.00968
** Interaction: Platine_Konvektion_unten
*Sfilm
Platine_unten, F, 20., 0.00484
** Interaction: Platine_Radiation
*Sradiate
Platine_oben_unten, R, 20., 0.75
** 
** OUTPUT REQUESTS
** 
*Restart, write, frequency=0
** 
** FIELD OUTPUT: F-Output-1
** 
*Output, field
*Node Output
CF, NT, RF, RFL, U
*Element Output, directions=YES
E, HFL, S, TEMP
*Contact Output
CDISP, CSTRESS
** 
** HISTORY OUTPUT: H-Output-1
** 
*Output, history, variable=PRESELECT
*End Step
** ----------------------------------------------------------------
** 
** STEP: Step-3
** 
*Step, name=Step-3, nlgeom=NO, inc=5
Kontaktaufbringung Platine/Stempel
*Coupled Temperature-displacement, creep=none, deltmx=10.
0.029, 0.03, 3e-07, 0.03
** 
** BOUNDARY CONDITIONS
** 
** Name: WZ_Stempel Type: Displacement/Rotation
*Boundary
RP_Stempel, 2, 2, -5.05
** 
** INTERACTIONS
** 
** Interaction: Surf2Surf_oben
*Model Change, type=CONTACT PAIR, add
Platine_oben, Stempel_Kontakt
** 
** OUTPUT REQUESTS
** 
*Restart, write, frequency=0
** 
** FIELD OUTPUT: F-Output-1
** 
*Output, field
*Node Output
CF, NT, RF, RFL, U
*Element Output, directions=YES
E, HFL, S, TEMP
*Contact Output
CDISP, CSTRESS
** 
** HISTORY OUTPUT: H-Output-1
** 
*Output, history, variable=PRESELECT
*End Step
** ----------------------------------------------------------------
** 
** STEP: Step-4
** 
*Step, name=Step-4, nlgeom=NO, inc=20
Kontaktaufbringung Platine/Matrize
*Coupled Temperature-displacement, creep=none, deltmx=10.
0.0291, 0.03, 3e-07, 0.03
** 
** BOUNDARY CONDITIONS
** 
** Name: Platine_Auflage Type: Displacement/Rotation
*Boundary, op=NEW
** Name: Platine_Mitte Type: Displacement/Rotation
*Boundary, op=NEW
Platine_mittenschnitt, 1, 1
** Name: Platine_Scheibenschnitt-1 Type: Displacement/Rotation
*Boundary, op=NEW
Platine_Scheibenschnitt-1, 3, 3, -0.002
** Name: WZ_Matrize Type: Displacement/Rotation
*Boundary, op=NEW
RP_Matrize, 1, 1, -0.04
RP_Matrize, 2, 2
RP_Matrize, 3, 3
RP_Matrize, 4, 4
RP_Matrize, 5, 5
RP_Matrize, 6, 6
** Name: WZ_Stempel Type: Displacement/Rotation
*Boundary, op=NEW
RP_Stempel, 1, 1
RP_Stempel, 2, 2, -10.1
RP_Stempel, 3, 3
RP_Stempel, 4, 4
RP_Stempel, 5, 5
RP_Stempel, 6, 6
** 
** LOADS
** 
** Name: Gegenkraft   Type: Concentrated force
*Cload
Platine_Gegenkraft, 2, 0.001
** 
** INTERACTIONS
** 
** Interaction: Surf2Surf_unten
*Model Change, type=CONTACT PAIR, add
Platine_unten, Matrize_Kontakt
** 
** OUTPUT REQUESTS
** 
*Restart, write, frequency=1
** 
** FIELD OUTPUT: F-Output-1
** 
*Output, field
*Node Output
CF, NT, RF, RFL, U
*Element Output, directions=YES
E, HFL, S, TEMP
*Contact Output
CDISP, CSTRESS
** 
** HISTORY OUTPUT: H-Output-1
** 
*Output, history, variable=PRESELECT
*End Step
