1

   Abaqus 2021                                  Date 09-Mar-2022   Time 10:36:37
   For use by FACHHOCHSCHULE SUEDWESTFALEN under license from Dassault Systemes or its subsidiary.

                                                                                 
 Aufwaermen der Platine                                                          
 STEP    1     INCREMENT     1     STEP TIME    0.00    


                        S T E P       1     C O U P L E D - T E M P E R A T U R E - D I S P L A C E M E N T   A N A L Y S I S


          Aufwaermen der Platine                                                          

     AUTOMATIC TIME CONTROL WITH -
          A SUGGESTED INITIAL TIME INCREMENT OF                 6.00    
          AND A TOTAL TIME PERIOD OF                            360.    
          THE MINIMUM TIME INCREMENT ALLOWED IS                0.600    
          THE MAXIMUM TIME INCREMENT ALLOWED IS                 6.00    

          CREEP AND SWELLING EFFECTS ARE OMITTED IN THIS STEP

     THE SIZE OF THE TIME INCREMENT IS CONTROLLED BY -
          THE TEMPERATURE CHANGE PER INCREMENT NOT EXCEEDING            20.0    

          CREEP AND SWELLING EFFECTS WILL BE IGNORED.

 CONVERGENCE TOLERANCE PARAMETERS FOR FORCE    
     CRITERION FOR RESIDUAL FORCE     FOR A NONLINEAR PROBLEM          5.000E-03
     CRITERION FOR DISP.    CORRECTION IN A NONLINEAR PROBLEM          1.000E-02
     INITIAL VALUE OF TIME AVERAGE FORCE                               1.000E-02
     AVERAGE FORCE     IS TIME AVERAGE FORCE    
     ALTERNATE CRIT. FOR RESIDUAL FORCE     FOR A NONLINEAR PROBLEM    2.000E-02
     CRITERION FOR ZERO FORCE     RELATIVE TO TIME AVRG. FORCE         1.000E-05
     CRITERION FOR RESIDUAL FORCE     WHEN THERE IS ZERO FLUX          1.000E-05
     CRITERION FOR DISP.    CORRECTION WHEN THERE IS ZERO FLUX         1.000E-03
     CRITERION FOR RESIDUAL FORCE     FOR A LINEAR INCREMENT           1.000E-08
     FIELD CONVERSION RATIO                                             1.00    
     CRITERION FOR ZERO FORCE     REL. TO TIME AVRG. MAX. FORCE        1.000E-05
     CRITERION FOR ZERO DISP.    RELATIVE TO CHARACTERISTIC LENGTH     1.000E-08

 CONVERGENCE TOLERANCE PARAMETERS FOR MOMENT   
     CRITERION FOR RESIDUAL MOMENT    FOR A NONLINEAR PROBLEM          5.000E-03
     CRITERION FOR ROTATION CORRECTION IN A NONLINEAR PROBLEM          1.000E-02
     INITIAL VALUE OF TIME AVERAGE MOMENT                              1.000E-02
     AVERAGE MOMENT    IS TIME AVERAGE MOMENT   
     ALTERNATE CRIT. FOR RESIDUAL MOMENT    FOR A NONLINEAR PROBLEM    2.000E-02
     CRITERION FOR ZERO MOMENT    RELATIVE TO TIME AVRG. MOMENT        1.000E-05
     CRITERION FOR RESIDUAL MOMENT    WHEN THERE IS ZERO FLUX          1.000E-05
     CRITERION FOR ROTATION CORRECTION WHEN THERE IS ZERO FLUX         1.000E-03
     CRITERION FOR RESIDUAL MOMENT    FOR A LINEAR INCREMENT           1.000E-08
     FIELD CONVERSION RATIO                                             1.00    
     CRITERION FOR ZERO MOMENT    REL. TO TIME AVRG. MAX. MOMENT       1.000E-05

 CONVERGENCE TOLERANCE PARAMETERS FOR HEAT FLUX
     CRITERION FOR RESIDUAL HEAT FLUX FOR A NONLINEAR PROBLEM          5.000E-03
     CRITERION FOR TEMP.    CORRECTION IN A NONLINEAR PROBLEM          1.000E-02
     INITIAL VALUE OF TIME AVERAGE HEAT FLUX                           1.000E-02
     AVERAGE HEAT FLUX IS TIME AVERAGE HEAT FLUX
     ALTERNATE CRIT. FOR RESIDUAL HEAT FLUX FOR A NONLINEAR PROBLEM    2.000E-02
     CRITERION FOR ZERO HEAT FLUX RELATIVE TO TIME AVRG. HEAT FLUX     1.000E-05
     CRITERION FOR RESIDUAL HEAT FLUX WHEN THERE IS ZERO FLUX          1.000E-05
     CRITERION FOR TEMP.    CORRECTION WHEN THERE IS ZERO FLUX         1.000E-03
     CRITERION FOR RESIDUAL HEAT FLUX FOR A LINEAR INCREMENT           1.000E-08
     FIELD CONVERSION RATIO                                             1.00    
     CRITERION FOR ZERO HEAT FLUX REL. TO TIME AVRG. MAX. HEAT FLUX    1.000E-05

     VOLUMETRIC STRAIN COMPATIBILITY TOLERANCE FOR HYBRID SOLIDS       1.000E-05
     AXIAL STRAIN COMPATIBILITY TOLERANCE FOR HYBRID BEAMS             1.000E-05
     TRANS. SHEAR STRAIN COMPATIBILITY TOLERANCE FOR HYBRID BEAMS      1.000E-05
     SOFT CONTACT CONSTRAINT COMPATIBILITY TOLERANCE FOR P>P0          5.000E-03
     SOFT CONTACT CONSTRAINT COMPATIBILITY TOLERANCE FOR P=0.0         0.100    
     CONTACT FORCE ERROR TOLERANCE FOR CONVERT SDI=YES                 1.00    
     DISPLACEMENT COMPATIBILITY TOLERANCE FOR DCOUP ELEMENTS           1.000E-05
     ROTATION COMPATIBILITY TOLERANCE FOR DCOUP ELEMENTS               1.000E-05

 EQUILIBRIUM WILL BE CHECKED FOR SEVERE DISCONTINUITY ITERATIONS

 TIME INCREMENTATION CONTROL PARAMETERS:
     FIRST EQUILIBRIUM ITERATION FOR CONSECUTIVE DIVERGENCE CHECK              4
     EQUILIBRIUM ITERATION AT WHICH LOG. CONVERGENCE RATE CHECK BEGINS         8
     EQUILIBRIUM ITERATION AFTER WHICH ALTERNATE RESIDUAL IS USED              9
     MAXIMUM EQUILIBRIUM ITERATIONS ALLOWED                                   16
     EQUILIBRIUM ITERATION COUNT FOR CUT-BACK IN NEXT INCREMENT               10
     MAXIMUM EQUILIB. ITERS IN TWO INCREMENTS FOR TIME INCREMENT INCREASE      4
     MAXIMUM ITERATIONS FOR SEVERE DISCONTINUITIES                            50
     MAXIMUM ATTEMPTS ALLOWED IN AN INCREMENT                                  5
     MAXIMUM DISCON. ITERS IN TWO INCREMENTS FOR TIME INCREMENT INCREASE      50
     MAXIMUM CONTACT AUGMENTATIONS FOR *SURFACE BEHAVIOR,AUGMENTED LAGRANGE   50
     CONSECUTIVE INCS MEETING TIME INTEG. TOL. FOR TIME INC. INCREASE          3
     CUT-BACK FACTOR AFTER DIVERGENCE                                 0.2500    
     CUT-BACK FACTOR FOR TOO SLOW CONVERGENCE                         0.5000    
     CUT-BACK FACTOR AFTER TOO MANY EQUILIBRIUM ITERATIONS            0.7500    
     CUT-BACK FACTOR AFTER TOO MANY SEVERE DISCONTINUITY ITERATIONS   0.2500    
     CUT-BACK FACTOR AFTER PROBLEMS IN ELEMENT ASSEMBLY               0.2500    
     INCREASE FACTOR AFTER TWO INCREMENTS THAT CONVERGE QUICKLY        1.500    
     MAX. TIME INCREMENT INCREASE FACTOR ALLOWED                       1.500    
     MAX. TIME INCREMENT INCREASE FACTOR ALLOWED (DYNAMICS)            1.250    
     MAX. TIME INCREMENT INCREASE FACTOR ALLOWED (DIFFUSION)           2.000    
     MINIMUM TIME INCREMENT RATIO FOR EXTRAPOLATION TO OCCUR          0.1000    
     CUT-BACK FACTOR WHEN TIME INTEGRATION ACCURACY TOL. EXCEEDED     0.8500    
     MAX. RATIO OF TIME INTEG. MEASURE TO TOL. FOR TIME INC. INCREASE 0.7500    
     INCREASE FACTOR FOR TIME INCREMENT WHEN POSSIBLE                 0.8000    
     MIN. TIME INC. INCREASE FACTOR IN LINEAR TRANSIENT PROBLEMS      0.9500    
     MAX. RATIO OF TIME INCREMENT TO STABILITY LIMIT                   1.000    
     FRACTION OF STABILITY LIMIT FOR NEW TIME INCREMENT               0.9500    
     TIME INCREMENT INCREASE FACTOR BEFORE A TIME POINT                1.000    

 CONTACT CONTROLS APPLIED TO ALL CONTACT PAIRS:
     GLOBAL STABILIZATION CONTROL IS NOT USED
     RELATIVE PENETRATION TOLERANCE FOR AUGMENTED LAGRANGE CONTACT:
          FINITE-SLIDING SURFACE-TO-SURFACE                            5.000E-02
          OTHERWISE                                                    1.000E-03

          PRINT OF INCREMENT NUMBER, TIME, ETC., EVERY    1  INCREMENTS

     THE MAXIMUM NUMBER OF INCREMENTS IN THIS STEP IS                      80

          UNSYMMETRIC MATRIX STORAGE AND SOLUTION WILL BE USED

     LINEAR EXTRAPOLATION WILL BE USED

     CHARACTERISTIC ELEMENT LENGTH      1.58    

     DETAILS REGARDING ACTUAL SOLUTION WAVEFRONT REQUESTED

     DETAILED OUTPUT OF DIAGNOSTICS TO DATABASE REQUESTED

     PRINT OF INCREMENT NUMBER, TIME, ETC., TO THE MESSAGE FILE EVERY     1  INCREMENTS

     ELEMENT OPERATIONS WILL BE CARRIED OUT IN PARALLEL USING   4 PROCESSORS

     PARALLEL CONTACT TRACKING ENABLED


     COLLECTING MODEL CONSTRAINT INFORMATION FOR OVERCONSTRAINT CHECKS

     COLLECTING STEP CONSTRAINT INFORMATION FOR OVERCONSTRAINT CHECKS
  
     ASYNCHRONOUS TRACKING ELEMENT LOOP STARTED
  


  INCREMENT     1 STARTS. ATTEMPT NUMBER  1, TIME INCREMENT   6.00    
  
     ASYNCHRONOUS TRACKING ELEMENT LOOP STARTED
  
 
     INITIAL ELEMENT LOAD BALANCE
            PROCESS    1   THREAD     NUMBER OF ELEMENTS
                              1            256
                              2            312
                              3            256
                              4            1384

 ***WARNING: THERE ARE 3 UNCONNECTED REGIONS IN THE MODEL.

 ***NOTE: SFM TYPE SURFACE ELEMENTS USED TO DEFINE CONTACT SURFACES NOT PART OF 
          A RIGID BODY MAY INCREASE THE NUMBER OR UNCONNECTED REGIONS REPORTED.

  NUMBER OF EQUATIONS =      5370     NUMBER OF RHS =    1
  NUMBER OF FLOATING PT. OPERATIONS =  2.81E+07

  USING THE DIRECT SOLVER WITH   4 PROCESSORS

     CHECK POINT   START OF SOLVER    

     CHECK POINT  END OF SOLVER       

       ELAPSED USER TIME (SEC)      =  0.10000    
       ELAPSED SYSTEM TIME (SEC)    =   0.0000    
       ELAPSED TOTAL CPU TIME (SEC) =  0.10000    
       ELAPSED WALLCLOCK TIME (SEC) =          0
  
     ASYNCHRONOUS TRACKING ELEMENT LOOP STARTED
  

               CONVERGENCE CHECKS FOR EQUILIBRIUM ITERATION     1


 AVERAGE FORCE                      1.351E-12   TIME AVG. FORCE       1.000E-02
 LARGEST RESIDUAL FORCE             2.423E-12   AT NODE        805   DOF  1
   INSTANCE: PLATINE-1                                                                       
 LARGEST INCREMENT OF DISP.        -3.344E-02   AT NODE         21   DOF  1
   INSTANCE: PLATINE-1                                                                       
 LARGEST CORRECTION TO DISP.       -3.344E-02   AT NODE         21   DOF  1
   INSTANCE: PLATINE-1                                                                       
          THERE IS ZERO FORCE     EVERYWHERE
 

 ***WARNING: THERE IS ZERO FORCE EVERYWHERE IN THE MODEL BASED ON THE DEFAULT 
             CRITERION. PLEASE CHECK THE VALUE OF THE AVERAGE FORCE DURING THE 
             CURRENT ITERATION TO VERIFY THAT THE FORCE IS SMALL ENOUGH TO BE 
             TREATED AS ZERO. IF NOT, PLEASE USE THE SOLUTION CONTROLS TO RESET 
             THE CRITERION FOR ZERO FORCE.

 AVERAGE MOMENT                      0.00       TIME AVG. MOMENT      1.579E-02
                                                (FROM FORCE     FIELD)
 ALL MOMENT    RESIDUALS ARE ZERO
 LARGEST INCREMENT OF ROTATION     -6.136E-46   AT NODE        765   DOF  6
   INSTANCE: WZ_MATRIZE-1                                                                    
 LARGEST CORRECTION TO ROTATION    -6.136E-46   AT NODE        765   DOF  6
   INSTANCE: WZ_MATRIZE-1                                                                    
          THERE IS ZERO MOMENT    EVERYWHERE

 AVERAGE HEAT FLUX                  0.353       TIME AVG. HEAT FLUX   0.353    
 LARGEST RESIDUAL HEAT FLUX        -6.265E-02   AT NODE        413   DOF 11
   INSTANCE: PLATINE-1                                                                       
 LARGEST INCREMENT OF TEMP.          20.6       AT NODE        742   DOF 11
   INSTANCE: PLATINE-1                                                                       
 LARGEST CORRECTION TO TEMP.         20.6       AT NODE        742   DOF 11
   INSTANCE: PLATINE-1                                                                       
          HEAT FLUX EQUILIBRIUM NOT ACHIEVED WITHIN TOLERANCE.

  NUMBER OF EQUATIONS =      5370     NUMBER OF RHS =    1
  NUMBER OF FLOATING PT. OPERATIONS =  2.81E+07

  USING THE DIRECT SOLVER WITH   4 PROCESSORS

     CHECK POINT   START OF SOLVER    

     CHECK POINT  END OF SOLVER       

       ELAPSED USER TIME (SEC)      =  0.10000    
       ELAPSED SYSTEM TIME (SEC)    =   0.0000    
       ELAPSED TOTAL CPU TIME (SEC) =  0.10000    
       ELAPSED WALLCLOCK TIME (SEC) =          0
  
     ASYNCHRONOUS TRACKING ELEMENT LOOP STARTED
  

               CONVERGENCE CHECKS FOR EQUILIBRIUM ITERATION     2


 AVERAGE FORCE                      2.003E-13   TIME AVG. FORCE       1.000E-02
 LARGEST RESIDUAL FORCE             6.426E-13   AT NODE        523   DOF  1
   INSTANCE: PLATINE-1                                                                       
 LARGEST INCREMENT OF DISP.        -3.262E-02   AT NODE         20   DOF  1
   INSTANCE: PLATINE-1                                                                       
 LARGEST CORRECTION TO DISP.        8.127E-04   AT NODE         21   DOF  1
   INSTANCE: PLATINE-1                                                                       
          THERE IS ZERO FORCE     EVERYWHERE
 

 ***WARNING: THERE IS ZERO FORCE EVERYWHERE IN THE MODEL BASED ON THE DEFAULT 
             CRITERION. PLEASE CHECK THE VALUE OF THE AVERAGE FORCE DURING THE 
             CURRENT ITERATION TO VERIFY THAT THE FORCE IS SMALL ENOUGH TO BE 
             TREATED AS ZERO. IF NOT, PLEASE USE THE SOLUTION CONTROLS TO RESET 
             THE CRITERION FOR ZERO FORCE.

 AVERAGE MOMENT                      0.00       TIME AVG. MOMENT      1.579E-02
                                                (FROM FORCE     FIELD)
 ALL MOMENT    RESIDUALS ARE ZERO
 LARGEST INCREMENT OF ROTATION       0.00       AT NODE        765   DOF  6
   INSTANCE: WZ_MATRIZE-1                                                                    
 LARGEST CORRECTION TO ROTATION     6.136E-46   AT NODE        765   DOF  6
   INSTANCE: WZ_MATRIZE-1                                                                    
          THERE IS ZERO MOMENT    EVERYWHERE

 AVERAGE HEAT FLUX                  0.348       TIME AVG. HEAT FLUX   0.348    
 LARGEST RESIDUAL HEAT FLUX         1.486E-03   AT NODE         94   DOF 11
   INSTANCE: PLATINE-1                                                                       
 LARGEST INCREMENT OF TEMP.          20.1       AT NODE        143   DOF 11
   INSTANCE: PLATINE-1                                                                       
 LARGEST CORRECTION TO TEMP.       -0.500       AT NODE       1001   DOF 11
   INSTANCE: PLATINE-1                                                                       
 ESTIMATE OF TEMP.    CORRECTION    1.186E-02
 HEAT FLUX EQUILIB. ACCEPTED BASED ON SMALL RESIDUAL AND ESTIMATED CORRECTION

 MAXIMUM NON-PRESCRIBED INCREMENT IN TEMPERATURE IS    20.1    
 

 ***NOTE: THE TIME INTEGRATION ACCURACY TOLERANCE HAS BEEN EXCEEDED.


  INCREMENT     1 STARTS. ATTEMPT NUMBER  2, TIME INCREMENT   5.08    
  
     ASYNCHRONOUS TRACKING ELEMENT LOOP STARTED
  
 
     INITIAL ELEMENT LOAD BALANCE
            PROCESS    1   THREAD     NUMBER OF ELEMENTS
                              1            1184
                              2            256
                              3            256
                              4            512

  NUMBER OF EQUATIONS =      5370     NUMBER OF RHS =    1
  NUMBER OF FLOATING PT. OPERATIONS =  2.81E+07

  USING THE DIRECT SOLVER WITH   4 PROCESSORS

     CHECK POINT   START OF SOLVER    

     CHECK POINT  END OF SOLVER       

       ELAPSED USER TIME (SEC)      =  0.10000    
       ELAPSED SYSTEM TIME (SEC)    =   0.0000    
       ELAPSED TOTAL CPU TIME (SEC) =  0.10000    
       ELAPSED WALLCLOCK TIME (SEC) =          0
  
     ASYNCHRONOUS TRACKING ELEMENT LOOP STARTED
  

               CONVERGENCE CHECKS FOR EQUILIBRIUM ITERATION     1


 AVERAGE FORCE                      1.146E-12   TIME AVG. FORCE       1.000E-02
 LARGEST RESIDUAL FORCE             2.155E-12   AT NODE        421   DOF  1
   INSTANCE: PLATINE-1                                                                       
 LARGEST INCREMENT OF DISP.        -2.831E-02   AT NODE         21   DOF  1
   INSTANCE: PLATINE-1                                                                       
 LARGEST CORRECTION TO DISP.       -2.831E-02   AT NODE         21   DOF  1
   INSTANCE: PLATINE-1                                                                       
          THERE IS ZERO FORCE     EVERYWHERE
 

 ***WARNING: THERE IS ZERO FORCE EVERYWHERE IN THE MODEL BASED ON THE DEFAULT 
             CRITERION. PLEASE CHECK THE VALUE OF THE AVERAGE FORCE DURING THE 
             CURRENT ITERATION TO VERIFY THAT THE FORCE IS SMALL ENOUGH TO BE 
             TREATED AS ZERO. IF NOT, PLEASE USE THE SOLUTION CONTROLS TO RESET 
             THE CRITERION FOR ZERO FORCE.

 AVERAGE MOMENT                      0.00       TIME AVG. MOMENT      1.579E-02
                                                (FROM FORCE     FIELD)
 ALL MOMENT    RESIDUALS ARE ZERO
 LARGEST INCREMENT OF ROTATION     -5.195E-46   AT NODE        765   DOF  6
   INSTANCE: WZ_MATRIZE-1                                                                    
 LARGEST CORRECTION TO ROTATION    -5.195E-46   AT NODE        765   DOF  6
   INSTANCE: WZ_MATRIZE-1                                                                    
          THERE IS ZERO MOMENT    EVERYWHERE

 AVERAGE HEAT FLUX                  0.352       TIME AVG. HEAT FLUX   0.352    
 LARGEST RESIDUAL HEAT FLUX        -5.305E-02   AT NODE        288   DOF 11
   INSTANCE: PLATINE-1                                                                       
 LARGEST INCREMENT OF TEMP.          17.4       AT NODE         91   DOF 11
   INSTANCE: PLATINE-1                                                                       
 LARGEST CORRECTION TO TEMP.         17.4       AT NODE         91   DOF 11
   INSTANCE: PLATINE-1                                                                       
          HEAT FLUX EQUILIBRIUM NOT ACHIEVED WITHIN TOLERANCE.

  NUMBER OF EQUATIONS =      5370     NUMBER OF RHS =    1
  NUMBER OF FLOATING PT. OPERATIONS =  2.81E+07

  USING THE DIRECT SOLVER WITH   4 PROCESSORS

     CHECK POINT   START OF SOLVER    

     CHECK POINT  END OF SOLVER       

       ELAPSED USER TIME (SEC)      =  0.10000    
       ELAPSED SYSTEM TIME (SEC)    =   0.0000    
       ELAPSED TOTAL CPU TIME (SEC) =  0.10000    
       ELAPSED WALLCLOCK TIME (SEC) =          0
  
     ASYNCHRONOUS TRACKING ELEMENT LOOP STARTED
  

               CONVERGENCE CHECKS FOR EQUILIBRIUM ITERATION     2


 AVERAGE FORCE                      3.653E-14   TIME AVG. FORCE       1.000E-02
 LARGEST RESIDUAL FORCE            -5.827E-13   AT NODE        767   DOF  1
   INSTANCE: PLATINE-1                                                                       
 LARGEST INCREMENT OF DISP.        -2.773E-02   AT NODE         20   DOF  1
   INSTANCE: PLATINE-1                                                                       
 LARGEST CORRECTION TO DISP.        5.849E-04   AT NODE         21   DOF  1
   INSTANCE: PLATINE-1                                                                       
          THERE IS ZERO FORCE     EVERYWHERE
 

 ***WARNING: THERE IS ZERO FORCE EVERYWHERE IN THE MODEL BASED ON THE DEFAULT 
             CRITERION. PLEASE CHECK THE VALUE OF THE AVERAGE FORCE DURING THE 
             CURRENT ITERATION TO VERIFY THAT THE FORCE IS SMALL ENOUGH TO BE 
             TREATED AS ZERO. IF NOT, PLEASE USE THE SOLUTION CONTROLS TO RESET 
             THE CRITERION FOR ZERO FORCE.

 AVERAGE MOMENT                      0.00       TIME AVG. MOMENT      1.579E-02
                                                (FROM FORCE     FIELD)
 ALL MOMENT    RESIDUALS ARE ZERO
 LARGEST INCREMENT OF ROTATION       0.00       AT NODE        765   DOF  6
   INSTANCE: WZ_MATRIZE-1                                                                    
 LARGEST CORRECTION TO ROTATION     5.195E-46   AT NODE        765   DOF  6
   INSTANCE: WZ_MATRIZE-1                                                                    
          THERE IS ZERO MOMENT    EVERYWHERE

 AVERAGE HEAT FLUX                  0.348       TIME AVG. HEAT FLUX   0.348    
 LARGEST RESIDUAL HEAT FLUX         1.073E-03   AT NODE        101   DOF 11
   INSTANCE: PLATINE-1                                                                       
 LARGEST INCREMENT OF TEMP.          17.1       AT NODE         14   DOF 11
   INSTANCE: PLATINE-1                                                                       
 LARGEST CORRECTION TO TEMP.       -0.360       AT NODE         91   DOF 11
   INSTANCE: PLATINE-1                                                                       
 ESTIMATE OF TEMP.    CORRECTION    7.281E-03
 HEAT FLUX EQUILIB. ACCEPTED BASED ON SMALL RESIDUAL AND ESTIMATED CORRECTION

 MAXIMUM NON-PRESCRIBED INCREMENT IN TEMPERATURE IS    17.1    

 ITERATION SUMMARY FOR THE INCREMENT:   2 TOTAL ITERATIONS, OF WHICH
   0 ARE SEVERE DISCONTINUITY ITERATIONS AND  2 ARE EQUILIBRIUM ITERATIONS.

 TIME INCREMENT COMPLETED   5.08    ,  FRACTION OF STEP COMPLETED  1.411E-02
 STEP TIME COMPLETED        5.08    ,  TOTAL TIME COMPLETED         5.08    


  INCREMENT     2 STARTS. ATTEMPT NUMBER  1, TIME INCREMENT   5.08    
  
     ASYNCHRONOUS TRACKING ELEMENT LOOP STARTED
  

  NUMBER OF EQUATIONS =      5370     NUMBER OF RHS =    1
  NUMBER OF FLOATING PT. OPERATIONS =  2.81E+07

  USING THE DIRECT SOLVER WITH   4 PROCESSORS

     CHECK POINT   START OF SOLVER    

     CHECK POINT  END OF SOLVER       

       ELAPSED USER TIME (SEC)      =  0.10000    
       ELAPSED SYSTEM TIME (SEC)    =   0.0000    
       ELAPSED TOTAL CPU TIME (SEC) =  0.10000    
       ELAPSED WALLCLOCK TIME (SEC) =          0
  
     ASYNCHRONOUS TRACKING ELEMENT LOOP STARTED
  

               CONVERGENCE CHECKS FOR EQUILIBRIUM ITERATION     1


 AVERAGE FORCE                      4.397E-14   TIME AVG. FORCE       1.000E-02
 LARGEST RESIDUAL FORCE             7.231E-13   AT NODE        769   DOF  1
   INSTANCE: PLATINE-1                                                                       
 LARGEST INCREMENT OF DISP.        -2.719E-02   AT NODE         23   DOF  1
   INSTANCE: PLATINE-1                                                                       
 LARGEST CORRECTION TO DISP.        5.385E-04   AT NODE         20   DOF  1
   INSTANCE: PLATINE-1                                                                       
          THERE IS ZERO FORCE     EVERYWHERE
 

 ***WARNING: THERE IS ZERO FORCE EVERYWHERE IN THE MODEL BASED ON THE DEFAULT 
             CRITERION. PLEASE CHECK THE VALUE OF THE AVERAGE FORCE DURING THE 
             CURRENT ITERATION TO VERIFY THAT THE FORCE IS SMALL ENOUGH TO BE 
             TREATED AS ZERO. IF NOT, PLEASE USE THE SOLUTION CONTROLS TO RESET 
             THE CRITERION FOR ZERO FORCE.

 AVERAGE MOMENT                      0.00       TIME AVG. MOMENT      1.579E-02
                                                (FROM FORCE     FIELD)
 ALL MOMENT    RESIDUALS ARE ZERO
 LARGEST INCREMENT OF ROTATION      1.510E-61   AT NODE        765   DOF  6
   INSTANCE: WZ_MATRIZE-1                                                                    
 LARGEST CORRECTION TO ROTATION     1.510E-61   AT NODE        765   DOF  6
   INSTANCE: WZ_MATRIZE-1                                                                    
          THERE IS ZERO MOMENT    EVERYWHERE

 AVERAGE HEAT FLUX                  0.627       TIME AVG. HEAT FLUX   0.488    
 LARGEST RESIDUAL HEAT FLUX         9.688E-04   AT NODE         93   DOF 11
   INSTANCE: PLATINE-1                                                                       
 LARGEST INCREMENT OF TEMP.          16.7       AT NODE         69   DOF 11
   INSTANCE: PLATINE-1                                                                       
 LARGEST CORRECTION TO TEMP.       -0.331       AT NODE        728   DOF 11
   INSTANCE: PLATINE-1                                                                       
 ESTIMATE OF TEMP.    CORRECTION    6.446E-03
 HEAT FLUX EQUILIB. ACCEPTED BASED ON SMALL RESIDUAL AND ESTIMATED CORRECTION

 MAXIMUM NON-PRESCRIBED INCREMENT IN TEMPERATURE IS    16.7    

 ITERATION SUMMARY FOR THE INCREMENT:   1 TOTAL ITERATIONS, OF WHICH
   0 ARE SEVERE DISCONTINUITY ITERATIONS AND  1 ARE EQUILIBRIUM ITERATIONS.

 TIME INCREMENT COMPLETED   5.08    ,  FRACTION OF STEP COMPLETED  2.823E-02
 STEP TIME COMPLETED        10.2    ,  TOTAL TIME COMPLETED         10.2    


  INCREMENT     3 STARTS. ATTEMPT NUMBER  1, TIME INCREMENT   5.08    
  
     ASYNCHRONOUS TRACKING ELEMENT LOOP STARTED
  

  NUMBER OF EQUATIONS =      5370     NUMBER OF RHS =    1
  NUMBER OF FLOATING PT. OPERATIONS =  2.81E+07

  USING THE DIRECT SOLVER WITH   4 PROCESSORS

     CHECK POINT   START OF SOLVER    

     CHECK POINT  END OF SOLVER       

       ELAPSED USER TIME (SEC)      =   0.0000    
       ELAPSED SYSTEM TIME (SEC)    =   0.0000    
       ELAPSED TOTAL CPU TIME (SEC) =   0.0000    
       ELAPSED WALLCLOCK TIME (SEC) =          0
  
     ASYNCHRONOUS TRACKING ELEMENT LOOP STARTED
  

               CONVERGENCE CHECKS FOR EQUILIBRIUM ITERATION     1


 AVERAGE FORCE                      1.405E-13   TIME AVG. FORCE       1.000E-02
 LARGEST RESIDUAL FORCE             7.644E-13   AT NODE        764   DOF  1
   INSTANCE: PLATINE-1                                                                       
 LARGEST INCREMENT OF DISP.        -2.668E-02   AT NODE         23   DOF  1
   INSTANCE: PLATINE-1                                                                       
 LARGEST CORRECTION TO DISP.        5.087E-04   AT NODE         21   DOF  1
   INSTANCE: PLATINE-1                                                                       
          THERE IS ZERO FORCE     EVERYWHERE
 

 ***WARNING: THERE IS ZERO FORCE EVERYWHERE IN THE MODEL BASED ON THE DEFAULT 
             CRITERION. PLEASE CHECK THE VALUE OF THE AVERAGE FORCE DURING THE 
             CURRENT ITERATION TO VERIFY THAT THE FORCE IS SMALL ENOUGH TO BE 
             TREATED AS ZERO. IF NOT, PLEASE USE THE SOLUTION CONTROLS TO RESET 
             THE CRITERION FOR ZERO FORCE.

 AVERAGE MOMENT                      0.00       TIME AVG. MOMENT      1.579E-02
                                                (FROM FORCE     FIELD)
 ALL MOMENT    RESIDUALS ARE ZERO
 LARGEST INCREMENT OF ROTATION     -3.495E-61   AT NODE        765   DOF  6
   INSTANCE: WZ_MATRIZE-1                                                                    
 LARGEST CORRECTION TO ROTATION    -5.006E-61   AT NODE        765   DOF  6
   INSTANCE: WZ_MATRIZE-1                                                                    
          THERE IS ZERO MOMENT    EVERYWHERE

 AVERAGE HEAT FLUX                  0.627       TIME AVG. HEAT FLUX   0.534    
 LARGEST RESIDUAL HEAT FLUX         8.982E-04   AT NODE        240   DOF 11
   INSTANCE: PLATINE-1                                                                       
 LARGEST INCREMENT OF TEMP.          16.4       AT NODE         34   DOF 11
   INSTANCE: PLATINE-1                                                                       
 LARGEST CORRECTION TO TEMP.       -0.313       AT NODE          8   DOF 11
   INSTANCE: PLATINE-1                                                                       
 ESTIMATE OF TEMP.    CORRECTION    5.864E-03
 HEAT FLUX EQUILIB. ACCEPTED BASED ON SMALL RESIDUAL AND ESTIMATED CORRECTION

 MAXIMUM NON-PRESCRIBED INCREMENT IN TEMPERATURE IS    16.4    

 ITERATION SUMMARY FOR THE INCREMENT:   1 TOTAL ITERATIONS, OF WHICH
   0 ARE SEVERE DISCONTINUITY ITERATIONS AND  1 ARE EQUILIBRIUM ITERATIONS.

 TIME INCREMENT COMPLETED   5.08    ,  FRACTION OF STEP COMPLETED  4.234E-02
 STEP TIME COMPLETED        15.2    ,  TOTAL TIME COMPLETED         15.2    


  INCREMENT     4 STARTS. ATTEMPT NUMBER  1, TIME INCREMENT   5.08    
  
     ASYNCHRONOUS TRACKING ELEMENT LOOP STARTED
  

  NUMBER OF EQUATIONS =      5370     NUMBER OF RHS =    1
  NUMBER OF FLOATING PT. OPERATIONS =  2.81E+07

  USING THE DIRECT SOLVER WITH   4 PROCESSORS

     CHECK POINT   START OF SOLVER    

     CHECK POINT  END OF SOLVER       

       ELAPSED USER TIME (SEC)      =   0.0000    
       ELAPSED SYSTEM TIME (SEC)    =   0.0000    
       ELAPSED TOTAL CPU TIME (SEC) =   0.0000    
       ELAPSED WALLCLOCK TIME (SEC) =          0
  
     ASYNCHRONOUS TRACKING ELEMENT LOOP STARTED
  

               CONVERGENCE CHECKS FOR EQUILIBRIUM ITERATION     1


 AVERAGE FORCE                      1.293E-13   TIME AVG. FORCE       1.000E-02
 LARGEST RESIDUAL FORCE            -8.126E-13   AT NODE        764   DOF  1
   INSTANCE: PLATINE-1                                                                       
 LARGEST INCREMENT OF DISP.        -2.620E-02   AT NODE         20   DOF  1
   INSTANCE: PLATINE-1                                                                       
 LARGEST CORRECTION TO DISP.        4.814E-04   AT NODE         23   DOF  1
   INSTANCE: PLATINE-1                                                                       
          THERE IS ZERO FORCE     EVERYWHERE
 

 ***WARNING: THERE IS ZERO FORCE EVERYWHERE IN THE MODEL BASED ON THE DEFAULT 
             CRITERION. PLEASE CHECK THE VALUE OF THE AVERAGE FORCE DURING THE 
             CURRENT ITERATION TO VERIFY THAT THE FORCE IS SMALL ENOUGH TO BE 
             TREATED AS ZERO. IF NOT, PLEASE USE THE SOLUTION CONTROLS TO RESET 
             THE CRITERION FOR ZERO FORCE.

 AVERAGE MOMENT                      0.00       TIME AVG. MOMENT      1.579E-02
                                                (FROM FORCE     FIELD)
 ALL MOMENT    RESIDUALS ARE ZERO
 LARGEST INCREMENT OF ROTATION     -1.004E-61   AT NODE        765   DOF  6
   INSTANCE: WZ_MATRIZE-1                                                                    
 LARGEST CORRECTION TO ROTATION     2.491E-61   AT NODE        765   DOF  6
   INSTANCE: WZ_MATRIZE-1                                                                    
          THERE IS ZERO MOMENT    EVERYWHERE

 AVERAGE HEAT FLUX                  0.627       TIME AVG. HEAT FLUX   0.558    
 LARGEST RESIDUAL HEAT FLUX         8.346E-04   AT NODE        440   DOF 11
   INSTANCE: PLATINE-1                                                                       
 LARGEST INCREMENT OF TEMP.          16.1       AT NODE        947   DOF 11
   INSTANCE: PLATINE-1                                                                       
 LARGEST CORRECTION TO TEMP.       -0.296       AT NODE        357   DOF 11
   INSTANCE: PLATINE-1                                                                       
 ESTIMATE OF TEMP.    CORRECTION    5.350E-03
 HEAT FLUX EQUILIB. ACCEPTED BASED ON SMALL RESIDUAL AND ESTIMATED CORRECTION

 MAXIMUM NON-PRESCRIBED INCREMENT IN TEMPERATURE IS    16.1    

 ITERATION SUMMARY FOR THE INCREMENT:   1 TOTAL ITERATIONS, OF WHICH
   0 ARE SEVERE DISCONTINUITY ITERATIONS AND  1 ARE EQUILIBRIUM ITERATIONS.

 TIME INCREMENT COMPLETED   5.08    ,  FRACTION OF STEP COMPLETED  5.645E-02
 STEP TIME COMPLETED        20.3    ,  TOTAL TIME COMPLETED         20.3    


  INCREMENT     5 STARTS. ATTEMPT NUMBER  1, TIME INCREMENT   5.08    
  
     ASYNCHRONOUS TRACKING ELEMENT LOOP STARTED
  

  NUMBER OF EQUATIONS =      5370     NUMBER OF RHS =    1
  NUMBER OF FLOATING PT. OPERATIONS =  2.81E+07

  USING THE DIRECT SOLVER WITH   4 PROCESSORS

     CHECK POINT   START OF SOLVER    

     CHECK POINT  END OF SOLVER       

       ELAPSED USER TIME (SEC)      =   0.0000    
       ELAPSED SYSTEM TIME (SEC)    =   0.0000    
       ELAPSED TOTAL CPU TIME (SEC) =   0.0000    
       ELAPSED WALLCLOCK TIME (SEC) =          0
  
     ASYNCHRONOUS TRACKING ELEMENT LOOP STARTED
  

               CONVERGENCE CHECKS FOR EQUILIBRIUM ITERATION     1


 AVERAGE FORCE                      6.786E-14   TIME AVG. FORCE       1.000E-02
 LARGEST RESIDUAL FORCE             6.022E-13   AT NODE        425   DOF  1
   INSTANCE: PLATINE-1                                                                       
 LARGEST INCREMENT OF DISP.        -2.577E-02   AT NODE         23   DOF  1
   INSTANCE: PLATINE-1                                                                       
 LARGEST CORRECTION TO DISP.        4.295E-04   AT NODE         20   DOF  1
   INSTANCE: PLATINE-1                                                                       
          THERE IS ZERO FORCE     EVERYWHERE
 

 ***WARNING: THERE IS ZERO FORCE EVERYWHERE IN THE MODEL BASED ON THE DEFAULT 
             CRITERION. PLEASE CHECK THE VALUE OF THE AVERAGE FORCE DURING THE 
             CURRENT ITERATION TO VERIFY THAT THE FORCE IS SMALL ENOUGH TO BE 
             TREATED AS ZERO. IF NOT, PLEASE USE THE SOLUTION CONTROLS TO RESET 
             THE CRITERION FOR ZERO FORCE.

 AVERAGE MOMENT                      0.00       TIME AVG. MOMENT      1.579E-02
                                                (FROM FORCE     FIELD)
 ALL MOMENT    RESIDUALS ARE ZERO
 LARGEST INCREMENT OF ROTATION      3.628E-61   AT NODE        765   DOF  6
   INSTANCE: WZ_MATRIZE-1                                                                    
 LARGEST CORRECTION TO ROTATION     4.632E-61   AT NODE        765   DOF  6
   INSTANCE: WZ_MATRIZE-1                                                                    
          THERE IS ZERO MOMENT    EVERYWHERE

 AVERAGE HEAT FLUX                  0.627       TIME AVG. HEAT FLUX   0.572    
 LARGEST RESIDUAL HEAT FLUX         4.496E-04   AT NODE        288   DOF 11
   INSTANCE: PLATINE-1                                                                       
 LARGEST INCREMENT OF TEMP.          15.9       AT NODE         75   DOF 11
   INSTANCE: PLATINE-1                                                                       
 LARGEST CORRECTION TO TEMP.       -0.264       AT NODE         15   DOF 11
   INSTANCE: PLATINE-1                                                                       
 ESTIMATE OF TEMP.    CORRECTION    2.835E-03
 HEAT FLUX EQUILIB. ACCEPTED BASED ON SMALL RESIDUAL AND ESTIMATED CORRECTION

 MAXIMUM NON-PRESCRIBED INCREMENT IN TEMPERATURE IS    15.9    

 ITERATION SUMMARY FOR THE INCREMENT:   1 TOTAL ITERATIONS, OF WHICH
   0 ARE SEVERE DISCONTINUITY ITERATIONS AND  1 ARE EQUILIBRIUM ITERATIONS.

 TIME INCREMENT COMPLETED   5.08    ,  FRACTION OF STEP COMPLETED  7.056E-02
 STEP TIME COMPLETED        25.4    ,  TOTAL TIME COMPLETED         25.4    


  INCREMENT     6 STARTS. ATTEMPT NUMBER  1, TIME INCREMENT   5.08    
  
     ASYNCHRONOUS TRACKING ELEMENT LOOP STARTED
  

  NUMBER OF EQUATIONS =      5370     NUMBER OF RHS =    1
  NUMBER OF FLOATING PT. OPERATIONS =  2.81E+07

  USING THE DIRECT SOLVER WITH   4 PROCESSORS

     CHECK POINT   START OF SOLVER    

     CHECK POINT  END OF SOLVER       

       ELAPSED USER TIME (SEC)      =  0.10000    
       ELAPSED SYSTEM TIME (SEC)    =   0.0000    
       ELAPSED TOTAL CPU TIME (SEC) =  0.10000    
       ELAPSED WALLCLOCK TIME (SEC) =          0
  
     ASYNCHRONOUS TRACKING ELEMENT LOOP STARTED
  

               CONVERGENCE CHECKS FOR EQUILIBRIUM ITERATION     1


 AVERAGE FORCE                      1.142E-13   TIME AVG. FORCE       1.000E-02
 LARGEST RESIDUAL FORCE            -7.740E-13   AT NODE        428   DOF  1
   INSTANCE: PLATINE-1                                                                       
 LARGEST INCREMENT OF DISP.        -2.550E-02   AT NODE         24   DOF  1
   INSTANCE: PLATINE-1                                                                       
 LARGEST CORRECTION TO DISP.        2.690E-04   AT NODE         23   DOF  1
   INSTANCE: PLATINE-1                                                                       
          THERE IS ZERO FORCE     EVERYWHERE
 

 ***WARNING: THERE IS ZERO FORCE EVERYWHERE IN THE MODEL BASED ON THE DEFAULT 
             CRITERION. PLEASE CHECK THE VALUE OF THE AVERAGE FORCE DURING THE 
             CURRENT ITERATION TO VERIFY THAT THE FORCE IS SMALL ENOUGH TO BE 
             TREATED AS ZERO. IF NOT, PLEASE USE THE SOLUTION CONTROLS TO RESET 
             THE CRITERION FOR ZERO FORCE.

 AVERAGE MOMENT                      0.00       TIME AVG. MOMENT      1.579E-02
                                                (FROM FORCE     FIELD)
 ALL MOMENT    RESIDUALS ARE ZERO
 LARGEST INCREMENT OF ROTATION     -6.815E-62   AT NODE        765   DOF  6
   INSTANCE: WZ_MATRIZE-1                                                                    
 LARGEST CORRECTION TO ROTATION    -4.310E-61   AT NODE        765   DOF  6
   INSTANCE: WZ_MATRIZE-1                                                                    
          THERE IS ZERO MOMENT    EVERYWHERE

 AVERAGE HEAT FLUX                  0.627       TIME AVG. HEAT FLUX   0.581    
 LARGEST RESIDUAL HEAT FLUX         2.787E-04   AT NODE         97   DOF 11
   INSTANCE: PLATINE-1                                                                       
 LARGEST INCREMENT OF TEMP.          15.7       AT NODE         37   DOF 11
   INSTANCE: PLATINE-1                                                                       
 LARGEST CORRECTION TO TEMP.       -0.166       AT NODE        266   DOF 11
   INSTANCE: PLATINE-1                                                                       
 ESTIMATE OF TEMP.    CORRECTION    1.739E-03
 HEAT FLUX EQUILIB. ACCEPTED BASED ON SMALL RESIDUAL AND ESTIMATED CORRECTION

 MAXIMUM NON-PRESCRIBED INCREMENT IN TEMPERATURE IS    15.7    

 ITERATION SUMMARY FOR THE INCREMENT:   1 TOTAL ITERATIONS, OF WHICH
   0 ARE SEVERE DISCONTINUITY ITERATIONS AND  1 ARE EQUILIBRIUM ITERATIONS.

 TIME INCREMENT COMPLETED   5.08    ,  FRACTION OF STEP COMPLETED  8.468E-02
 STEP TIME COMPLETED        30.5    ,  TOTAL TIME COMPLETED         30.5    


  INCREMENT     7 STARTS. ATTEMPT NUMBER  1, TIME INCREMENT   5.08    
  
     ASYNCHRONOUS TRACKING ELEMENT LOOP STARTED
  

  NUMBER OF EQUATIONS =      5370     NUMBER OF RHS =    1
  NUMBER OF FLOATING PT. OPERATIONS =  2.81E+07

  USING THE DIRECT SOLVER WITH   4 PROCESSORS

     CHECK POINT   START OF SOLVER    

     CHECK POINT  END OF SOLVER       

       ELAPSED USER TIME (SEC)      =   0.0000    
       ELAPSED SYSTEM TIME (SEC)    =   0.0000    
       ELAPSED TOTAL CPU TIME (SEC) =   0.0000    
       ELAPSED WALLCLOCK TIME (SEC) =          0
  
     ASYNCHRONOUS TRACKING ELEMENT LOOP STARTED
  

               CONVERGENCE CHECKS FOR EQUILIBRIUM ITERATION     1


 AVERAGE FORCE                      1.086E-13   TIME AVG. FORCE       1.000E-02
 LARGEST RESIDUAL FORCE            -6.450E-13   AT NODE        795   DOF  1
   INSTANCE: PLATINE-1                                                                       
 LARGEST INCREMENT OF DISP.        -2.524E-02   AT NODE         20   DOF  1
   INSTANCE: PLATINE-1                                                                       
 LARGEST CORRECTION TO DISP.        2.623E-04   AT NODE         24   DOF  1
   INSTANCE: PLATINE-1                                                                       
          THERE IS ZERO FORCE     EVERYWHERE
 

 ***WARNING: THERE IS ZERO FORCE EVERYWHERE IN THE MODEL BASED ON THE DEFAULT 
             CRITERION. PLEASE CHECK THE VALUE OF THE AVERAGE FORCE DURING THE 
             CURRENT ITERATION TO VERIFY THAT THE FORCE IS SMALL ENOUGH TO BE 
             TREATED AS ZERO. IF NOT, PLEASE USE THE SOLUTION CONTROLS TO RESET 
             THE CRITERION FOR ZERO FORCE.

 AVERAGE MOMENT                      0.00       TIME AVG. MOMENT      1.579E-02
                                                (FROM FORCE     FIELD)
 ALL MOMENT    RESIDUALS ARE ZERO
 LARGEST INCREMENT OF ROTATION     -4.283E-61   AT NODE        765   DOF  6
   INSTANCE: WZ_MATRIZE-1                                                                    
 LARGEST CORRECTION TO ROTATION    -3.602E-61   AT NODE        765   DOF  6
   INSTANCE: WZ_MATRIZE-1                                                                    
          THERE IS ZERO MOMENT    EVERYWHERE

 AVERAGE HEAT FLUX                  0.627       TIME AVG. HEAT FLUX   0.587    
 LARGEST RESIDUAL HEAT FLUX         2.690E-04   AT NODE        235   DOF 11
   INSTANCE: PLATINE-1                                                                       
 LARGEST INCREMENT OF TEMP.          15.5       AT NODE        353   DOF 11
   INSTANCE: PLATINE-1                                                                       
 LARGEST CORRECTION TO TEMP.       -0.161       AT NODE        797   DOF 11
   INSTANCE: PLATINE-1                                                                       
 ESTIMATE OF TEMP.    CORRECTION    1.661E-03
 HEAT FLUX EQUILIB. ACCEPTED BASED ON SMALL RESIDUAL AND ESTIMATED CORRECTION

 MAXIMUM NON-PRESCRIBED INCREMENT IN TEMPERATURE IS    15.5    

 ITERATION SUMMARY FOR THE INCREMENT:   1 TOTAL ITERATIONS, OF WHICH
   0 ARE SEVERE DISCONTINUITY ITERATIONS AND  1 ARE EQUILIBRIUM ITERATIONS.

 TIME INCREMENT COMPLETED   5.08    ,  FRACTION OF STEP COMPLETED  9.879E-02
 STEP TIME COMPLETED        35.6    ,  TOTAL TIME COMPLETED         35.6    


  INCREMENT     8 STARTS. ATTEMPT NUMBER  1, TIME INCREMENT   5.08    
  
     ASYNCHRONOUS TRACKING ELEMENT LOOP STARTED
  

  NUMBER OF EQUATIONS =      5370     NUMBER OF RHS =    1
  NUMBER OF FLOATING PT. OPERATIONS =  2.81E+07

  USING THE DIRECT SOLVER WITH   4 PROCESSORS

     CHECK POINT   START OF SOLVER    

     CHECK POINT  END OF SOLVER       

       ELAPSED USER TIME (SEC)      =   0.0000    
       ELAPSED SYSTEM TIME (SEC)    =   0.0000    
       ELAPSED TOTAL CPU TIME (SEC) =   0.0000    
       ELAPSED WALLCLOCK TIME (SEC) =          0
  
     ASYNCHRONOUS TRACKING ELEMENT LOOP STARTED
  

               CONVERGENCE CHECKS FOR EQUILIBRIUM ITERATION     1


 AVERAGE FORCE                      7.288E-14   TIME AVG. FORCE       1.000E-02
 LARGEST RESIDUAL FORCE             5.354E-13   AT NODE        800   DOF  1
   INSTANCE: PLATINE-1                                                                       
 LARGEST INCREMENT OF DISP.        -2.498E-02   AT NODE         24   DOF  1
   INSTANCE: PLATINE-1                                                                       
 LARGEST CORRECTION TO DISP.        2.544E-04   AT NODE         20   DOF  1
   INSTANCE: PLATINE-1                                                                       
          THERE IS ZERO FORCE     EVERYWHERE
 

 ***WARNING: THERE IS ZERO FORCE EVERYWHERE IN THE MODEL BASED ON THE DEFAULT 
             CRITERION. PLEASE CHECK THE VALUE OF THE AVERAGE FORCE DURING THE 
             CURRENT ITERATION TO VERIFY THAT THE FORCE IS SMALL ENOUGH TO BE 
             TREATED AS ZERO. IF NOT, PLEASE USE THE SOLUTION CONTROLS TO RESET 
             THE CRITERION FOR ZERO FORCE.

 AVERAGE MOMENT                      0.00       TIME AVG. MOMENT      1.579E-02
                                                (FROM FORCE     FIELD)
 ALL MOMENT    RESIDUALS ARE ZERO
 LARGEST INCREMENT OF ROTATION      4.534E-61   AT NODE        765   DOF  6
   INSTANCE: WZ_MATRIZE-1                                                                    
 LARGEST CORRECTION TO ROTATION     8.817E-61   AT NODE        765   DOF  6
   INSTANCE: WZ_MATRIZE-1                                                                    
          THERE IS ZERO MOMENT    EVERYWHERE

 AVERAGE HEAT FLUX                  0.627       TIME AVG. HEAT FLUX   0.592    
 LARGEST RESIDUAL HEAT FLUX         2.583E-04   AT NODE        373   DOF 11
   INSTANCE: PLATINE-1                                                                       
 LARGEST INCREMENT OF TEMP.          15.4       AT NODE        586   DOF 11
   INSTANCE: PLATINE-1                                                                       
 LARGEST CORRECTION TO TEMP.       -0.157       AT NODE        363   DOF 11
   INSTANCE: PLATINE-1                                                                       
 ESTIMATE OF TEMP.    CORRECTION    1.579E-03
 HEAT FLUX EQUILIB. ACCEPTED BASED ON SMALL RESIDUAL AND ESTIMATED CORRECTION

 MAXIMUM NON-PRESCRIBED INCREMENT IN TEMPERATURE IS    15.4    

 ITERATION SUMMARY FOR THE INCREMENT:   1 TOTAL ITERATIONS, OF WHICH
   0 ARE SEVERE DISCONTINUITY ITERATIONS AND  1 ARE EQUILIBRIUM ITERATIONS.

 TIME INCREMENT COMPLETED   5.08    ,  FRACTION OF STEP COMPLETED  0.113    
 STEP TIME COMPLETED        40.6    ,  TOTAL TIME COMPLETED         40.6    


  INCREMENT     9 STARTS. ATTEMPT NUMBER  1, TIME INCREMENT   5.08    
  
     ASYNCHRONOUS TRACKING ELEMENT LOOP STARTED
  

  NUMBER OF EQUATIONS =      5370     NUMBER OF RHS =    1
  NUMBER OF FLOATING PT. OPERATIONS =  2.81E+07

  USING THE DIRECT SOLVER WITH   4 PROCESSORS

     CHECK POINT   START OF SOLVER    

     CHECK POINT  END OF SOLVER       

       ELAPSED USER TIME (SEC)      =  0.10000    
       ELAPSED SYSTEM TIME (SEC)    =   0.0000    
       ELAPSED TOTAL CPU TIME (SEC) =  0.10000    
       ELAPSED WALLCLOCK TIME (SEC) =          0
  
     ASYNCHRONOUS TRACKING ELEMENT LOOP STARTED
  

               CONVERGENCE CHECKS FOR EQUILIBRIUM ITERATION     1


 AVERAGE FORCE                      8.565E-14   TIME AVG. FORCE       1.000E-02
 LARGEST RESIDUAL FORCE            -4.770E-13   AT NODE        809   DOF  1
   INSTANCE: PLATINE-1                                                                       
 LARGEST INCREMENT OF DISP.        -2.474E-02   AT NODE         23   DOF  1
   INSTANCE: PLATINE-1                                                                       
 LARGEST CORRECTION TO DISP.        2.469E-04   AT NODE         20   DOF  1
   INSTANCE: PLATINE-1                                                                       
          THERE IS ZERO FORCE     EVERYWHERE
 

 ***WARNING: THERE IS ZERO FORCE EVERYWHERE IN THE MODEL BASED ON THE DEFAULT 
             CRITERION. PLEASE CHECK THE VALUE OF THE AVERAGE FORCE DURING THE 
             CURRENT ITERATION TO VERIFY THAT THE FORCE IS SMALL ENOUGH TO BE 
             TREATED AS ZERO. IF NOT, PLEASE USE THE SOLUTION CONTROLS TO RESET 
             THE CRITERION FOR ZERO FORCE.

 AVERAGE MOMENT                      0.00       TIME AVG. MOMENT      1.579E-02
                                                (FROM FORCE     FIELD)
 ALL MOMENT    RESIDUALS ARE ZERO
 LARGEST INCREMENT OF ROTATION     -1.889E-61   AT NODE        765   DOF  6
   INSTANCE: WZ_MATRIZE-1                                                                    
 LARGEST CORRECTION TO ROTATION    -6.423E-61   AT NODE        765   DOF  6
   INSTANCE: WZ_MATRIZE-1                                                                    
          THERE IS ZERO MOMENT    EVERYWHERE

 AVERAGE HEAT FLUX                  0.627       TIME AVG. HEAT FLUX   0.596    
 LARGEST RESIDUAL HEAT FLUX         2.481E-04   AT NODE        396   DOF 11
   INSTANCE: PLATINE-1                                                                       
 LARGEST INCREMENT OF TEMP.          15.2       AT NODE        514   DOF 11
   INSTANCE: PLATINE-1                                                                       
 LARGEST CORRECTION TO TEMP.       -0.152       AT NODE        958   DOF 11
   INSTANCE: PLATINE-1                                                                       
          THE HEAT FLUX EQUILIBRIUM EQUATIONS HAVE CONVERGED

 MAXIMUM NON-PRESCRIBED INCREMENT IN TEMPERATURE IS    15.2    

 ITERATION SUMMARY FOR THE INCREMENT:   1 TOTAL ITERATIONS, OF WHICH
   0 ARE SEVERE DISCONTINUITY ITERATIONS AND  1 ARE EQUILIBRIUM ITERATIONS.

 TIME INCREMENT COMPLETED   5.08    ,  FRACTION OF STEP COMPLETED  0.127    
 STEP TIME COMPLETED        45.7    ,  TOTAL TIME COMPLETED         45.7    


  INCREMENT    10 STARTS. ATTEMPT NUMBER  1, TIME INCREMENT   5.08    
  
     ASYNCHRONOUS TRACKING ELEMENT LOOP STARTED
  

  NUMBER OF EQUATIONS =      5370     NUMBER OF RHS =    1
  NUMBER OF FLOATING PT. OPERATIONS =  2.81E+07

  USING THE DIRECT SOLVER WITH   4 PROCESSORS

     CHECK POINT   START OF SOLVER    

     CHECK POINT  END OF SOLVER       

       ELAPSED USER TIME (SEC)      =   0.0000    
       ELAPSED SYSTEM TIME (SEC)    =  0.10000    
       ELAPSED TOTAL CPU TIME (SEC) =  0.10000    
       ELAPSED WALLCLOCK TIME (SEC) =          0
  
     ASYNCHRONOUS TRACKING ELEMENT LOOP STARTED
  

               CONVERGENCE CHECKS FOR EQUILIBRIUM ITERATION     1


 AVERAGE FORCE                      8.502E-14   TIME AVG. FORCE       1.000E-02
 LARGEST RESIDUAL FORCE            -5.810E-13   AT NODE        527   DOF  1
   INSTANCE: PLATINE-1                                                                       
 LARGEST INCREMENT OF DISP.        -2.450E-02   AT NODE         20   DOF  1
   INSTANCE: PLATINE-1                                                                       
 LARGEST CORRECTION TO DISP.        2.398E-04   AT NODE         23   DOF  1
   INSTANCE: PLATINE-1                                                                       
          THERE IS ZERO FORCE     EVERYWHERE
 

 ***WARNING: THERE IS ZERO FORCE EVERYWHERE IN THE MODEL BASED ON THE DEFAULT 
             CRITERION. PLEASE CHECK THE VALUE OF THE AVERAGE FORCE DURING THE 
             CURRENT ITERATION TO VERIFY THAT THE FORCE IS SMALL ENOUGH TO BE 
             TREATED AS ZERO. IF NOT, PLEASE USE THE SOLUTION CONTROLS TO RESET 
             THE CRITERION FOR ZERO FORCE.

 AVERAGE MOMENT                      0.00       TIME AVG. MOMENT      1.579E-02
                                                (FROM FORCE     FIELD)
 ALL MOMENT    RESIDUALS ARE ZERO
 LARGEST INCREMENT OF ROTATION     -1.569E-61   AT NODE        765   DOF  6
   INSTANCE: WZ_MATRIZE-1                                                                    
 LARGEST CORRECTION TO ROTATION    -5.426E-62   AT NODE        765   DOF  5
   INSTANCE: WZ_MATRIZE-1                                                                    
          THERE IS ZERO MOMENT    EVERYWHERE

 AVERAGE HEAT FLUX                  0.627       TIME AVG. HEAT FLUX   0.599    
 LARGEST RESIDUAL HEAT FLUX         2.386E-04   AT NODE        238   DOF 11
   INSTANCE: PLATINE-1                                                                       
 LARGEST INCREMENT OF TEMP.          15.1       AT NODE        458   DOF 11
   INSTANCE: PLATINE-1                                                                       
 LARGEST CORRECTION TO TEMP.       -0.148       AT NODE        977   DOF 11
   INSTANCE: PLATINE-1                                                                       
          THE HEAT FLUX EQUILIBRIUM EQUATIONS HAVE CONVERGED

 MAXIMUM NON-PRESCRIBED INCREMENT IN TEMPERATURE IS    15.1    

 ITERATION SUMMARY FOR THE INCREMENT:   1 TOTAL ITERATIONS, OF WHICH
   0 ARE SEVERE DISCONTINUITY ITERATIONS AND  1 ARE EQUILIBRIUM ITERATIONS.

 TIME INCREMENT COMPLETED   5.08    ,  FRACTION OF STEP COMPLETED  0.141    
 STEP TIME COMPLETED        50.8    ,  TOTAL TIME COMPLETED         50.8    


  INCREMENT    11 STARTS. ATTEMPT NUMBER  1, TIME INCREMENT   5.08    
  
     ASYNCHRONOUS TRACKING ELEMENT LOOP STARTED
  

  NUMBER OF EQUATIONS =      5370     NUMBER OF RHS =    1
  NUMBER OF FLOATING PT. OPERATIONS =  2.81E+07

  USING THE DIRECT SOLVER WITH   4 PROCESSORS

     CHECK POINT   START OF SOLVER    

     CHECK POINT  END OF SOLVER       

       ELAPSED USER TIME (SEC)      =  0.10000    
       ELAPSED SYSTEM TIME (SEC)    =   0.0000    
       ELAPSED TOTAL CPU TIME (SEC) =  0.10000    
       ELAPSED WALLCLOCK TIME (SEC) =          0
  
     ASYNCHRONOUS TRACKING ELEMENT LOOP STARTED
  

               CONVERGENCE CHECKS FOR EQUILIBRIUM ITERATION     1


 AVERAGE FORCE                      1.033E-13   TIME AVG. FORCE       1.000E-02
 LARGEST RESIDUAL FORCE             6.138E-13   AT NODE        429   DOF  1
   INSTANCE: PLATINE-1                                                                       
 LARGEST INCREMENT OF DISP.        -2.426E-02   AT NODE         23   DOF  1
   INSTANCE: PLATINE-1                                                                       
 LARGEST CORRECTION TO DISP.        2.329E-04   AT NODE         20   DOF  1
   INSTANCE: PLATINE-1                                                                       
          THERE IS ZERO FORCE     EVERYWHERE
 

 ***WARNING: THERE IS ZERO FORCE EVERYWHERE IN THE MODEL BASED ON THE DEFAULT 
             CRITERION. PLEASE CHECK THE VALUE OF THE AVERAGE FORCE DURING THE 
             CURRENT ITERATION TO VERIFY THAT THE FORCE IS SMALL ENOUGH TO BE 
             TREATED AS ZERO. IF NOT, PLEASE USE THE SOLUTION CONTROLS TO RESET 
             THE CRITERION FOR ZERO FORCE.

 AVERAGE MOMENT                      0.00       TIME AVG. MOMENT      1.579E-02
                                                (FROM FORCE     FIELD)
 ALL MOMENT    RESIDUALS ARE ZERO
 LARGEST INCREMENT OF ROTATION     -8.585E-61   AT NODE        765   DOF  6
   INSTANCE: WZ_MATRIZE-1                                                                    
 LARGEST CORRECTION TO ROTATION    -7.016E-61   AT NODE        765   DOF  6
   INSTANCE: WZ_MATRIZE-1                                                                    
          THERE IS ZERO MOMENT    EVERYWHERE

 AVERAGE HEAT FLUX                  0.627       TIME AVG. HEAT FLUX   0.602    
 LARGEST RESIDUAL HEAT FLUX         2.296E-04   AT NODE        587   DOF 11
   INSTANCE: PLATINE-1                                                                       
 LARGEST INCREMENT OF TEMP.          14.9       AT NODE        139   DOF 11
   INSTANCE: PLATINE-1                                                                       
 LARGEST CORRECTION TO TEMP.       -0.143       AT NODE        194   DOF 11
   INSTANCE: PLATINE-1                                                                       
          THE HEAT FLUX EQUILIBRIUM EQUATIONS HAVE CONVERGED

 MAXIMUM NON-PRESCRIBED INCREMENT IN TEMPERATURE IS    14.9    

 ITERATION SUMMARY FOR THE INCREMENT:   1 TOTAL ITERATIONS, OF WHICH
   0 ARE SEVERE DISCONTINUITY ITERATIONS AND  1 ARE EQUILIBRIUM ITERATIONS.

 TIME INCREMENT COMPLETED   5.08    ,  FRACTION OF STEP COMPLETED  0.155    
 STEP TIME COMPLETED        55.9    ,  TOTAL TIME COMPLETED         55.9    


  INCREMENT    12 STARTS. ATTEMPT NUMBER  1, TIME INCREMENT   5.08    
  
     ASYNCHRONOUS TRACKING ELEMENT LOOP STARTED
  

  NUMBER OF EQUATIONS =      5370     NUMBER OF RHS =    1
  NUMBER OF FLOATING PT. OPERATIONS =  2.81E+07

  USING THE DIRECT SOLVER WITH   4 PROCESSORS

     CHECK POINT   START OF SOLVER    

     CHECK POINT  END OF SOLVER       

       ELAPSED USER TIME (SEC)      =  0.10000    
       ELAPSED SYSTEM TIME (SEC)    =  0.10000    
       ELAPSED TOTAL CPU TIME (SEC) =  0.20000    
       ELAPSED WALLCLOCK TIME (SEC) =          0
  
     ASYNCHRONOUS TRACKING ELEMENT LOOP STARTED
  

               CONVERGENCE CHECKS FOR EQUILIBRIUM ITERATION     1


 AVERAGE FORCE                      8.655E-14   TIME AVG. FORCE       1.000E-02
 LARGEST RESIDUAL FORCE            -4.716E-13   AT NODE        438   DOF  1
   INSTANCE: PLATINE-1                                                                       
 LARGEST INCREMENT OF DISP.        -2.408E-02   AT NODE         20   DOF  1
   INSTANCE: PLATINE-1                                                                       
 LARGEST CORRECTION TO DISP.        1.893E-04   AT NODE         23   DOF  1
   INSTANCE: PLATINE-1                                                                       
          THERE IS ZERO FORCE     EVERYWHERE
 

 ***WARNING: THERE IS ZERO FORCE EVERYWHERE IN THE MODEL BASED ON THE DEFAULT 
             CRITERION. PLEASE CHECK THE VALUE OF THE AVERAGE FORCE DURING THE 
             CURRENT ITERATION TO VERIFY THAT THE FORCE IS SMALL ENOUGH TO BE 
             TREATED AS ZERO. IF NOT, PLEASE USE THE SOLUTION CONTROLS TO RESET 
             THE CRITERION FOR ZERO FORCE.

 AVERAGE MOMENT                      0.00       TIME AVG. MOMENT      1.579E-02
                                                (FROM FORCE     FIELD)
 ALL MOMENT    RESIDUALS ARE ZERO
 LARGEST INCREMENT OF ROTATION     -8.467E-61   AT NODE        765   DOF  6
   INSTANCE: WZ_MATRIZE-1                                                                    
 LARGEST CORRECTION TO ROTATION    -8.301E-62   AT NODE        765   DOF  5
   INSTANCE: WZ_MATRIZE-1                                                                    
          THERE IS ZERO MOMENT    EVERYWHERE

 AVERAGE HEAT FLUX                  0.627       TIME AVG. HEAT FLUX   0.604    
 LARGEST RESIDUAL HEAT FLUX         1.347E-04   AT NODE        249   DOF 11
   INSTANCE: PLATINE-1                                                                       
 LARGEST INCREMENT OF TEMP.          14.8       AT NODE        316   DOF 11
   INSTANCE: PLATINE-1                                                                       
 LARGEST CORRECTION TO TEMP.       -0.117       AT NODE        803   DOF 11
   INSTANCE: PLATINE-1                                                                       
          THE HEAT FLUX EQUILIBRIUM EQUATIONS HAVE CONVERGED

 MAXIMUM NON-PRESCRIBED INCREMENT IN TEMPERATURE IS    14.8    

 ITERATION SUMMARY FOR THE INCREMENT:   1 TOTAL ITERATIONS, OF WHICH
   0 ARE SEVERE DISCONTINUITY ITERATIONS AND  1 ARE EQUILIBRIUM ITERATIONS.

 TIME INCREMENT COMPLETED   5.08    ,  FRACTION OF STEP COMPLETED  0.169    
 STEP TIME COMPLETED        61.0    ,  TOTAL TIME COMPLETED         61.0    


  INCREMENT    13 STARTS. ATTEMPT NUMBER  1, TIME INCREMENT   5.08    
  
     ASYNCHRONOUS TRACKING ELEMENT LOOP STARTED
  

  NUMBER OF EQUATIONS =      5370     NUMBER OF RHS =    1
  NUMBER OF FLOATING PT. OPERATIONS =  2.81E+07

  USING THE DIRECT SOLVER WITH   4 PROCESSORS

     CHECK POINT   START OF SOLVER    

     CHECK POINT  END OF SOLVER       

       ELAPSED USER TIME (SEC)      =   0.0000    
       ELAPSED SYSTEM TIME (SEC)    =  0.10000    
       ELAPSED TOTAL CPU TIME (SEC) =  0.10000    
       ELAPSED WALLCLOCK TIME (SEC) =          0
  
     ASYNCHRONOUS TRACKING ELEMENT LOOP STARTED
  

               CONVERGENCE CHECKS FOR EQUILIBRIUM ITERATION     1


 AVERAGE FORCE                      9.764E-14   TIME AVG. FORCE       1.000E-02
 LARGEST RESIDUAL FORCE             5.245E-13   AT NODE        753   DOF  1
   INSTANCE: PLATINE-1                                                                       
 LARGEST INCREMENT OF DISP.        -2.391E-02   AT NODE         20   DOF  1
   INSTANCE: PLATINE-1                                                                       
 LARGEST CORRECTION TO DISP.        1.616E-04   AT NODE         20   DOF  1
   INSTANCE: PLATINE-1                                                                       
          THERE IS ZERO FORCE     EVERYWHERE
 

 ***WARNING: THERE IS ZERO FORCE EVERYWHERE IN THE MODEL BASED ON THE DEFAULT 
             CRITERION. PLEASE CHECK THE VALUE OF THE AVERAGE FORCE DURING THE 
             CURRENT ITERATION TO VERIFY THAT THE FORCE IS SMALL ENOUGH TO BE 
             TREATED AS ZERO. IF NOT, PLEASE USE THE SOLUTION CONTROLS TO RESET 
             THE CRITERION FOR ZERO FORCE.

 AVERAGE MOMENT                      0.00       TIME AVG. MOMENT      1.579E-02
                                                (FROM FORCE     FIELD)
 ALL MOMENT    RESIDUALS ARE ZERO
 LARGEST INCREMENT OF ROTATION      1.478E-60   AT NODE        765   DOF  6
   INSTANCE: WZ_MATRIZE-1                                                                    
 LARGEST CORRECTION TO ROTATION     2.324E-60   AT NODE        765   DOF  6
   INSTANCE: WZ_MATRIZE-1                                                                    
          THERE IS ZERO MOMENT    EVERYWHERE

 AVERAGE HEAT FLUX                  0.627       TIME AVG. HEAT FLUX   0.606    
 LARGEST RESIDUAL HEAT FLUX         1.142E-04   AT NODE        105   DOF 11
   INSTANCE: PLATINE-1                                                                       
 LARGEST INCREMENT OF TEMP.          14.7       AT NODE         48   DOF 11
   INSTANCE: PLATINE-1                                                                       
 LARGEST CORRECTION TO TEMP.       -9.943E-02   AT NODE         76   DOF 11
   INSTANCE: PLATINE-1                                                                       
          THE HEAT FLUX EQUILIBRIUM EQUATIONS HAVE CONVERGED

 MAXIMUM NON-PRESCRIBED INCREMENT IN TEMPERATURE IS    14.7    
          TIME INCREMENT MAY NOW INCREASE TO     5.52    

 ITERATION SUMMARY FOR THE INCREMENT:   1 TOTAL ITERATIONS, OF WHICH
   0 ARE SEVERE DISCONTINUITY ITERATIONS AND  1 ARE EQUILIBRIUM ITERATIONS.

 TIME INCREMENT COMPLETED   5.08    ,  FRACTION OF STEP COMPLETED  0.183    
 STEP TIME COMPLETED        66.0    ,  TOTAL TIME COMPLETED         66.0    


  INCREMENT    14 STARTS. ATTEMPT NUMBER  1, TIME INCREMENT   5.52    
  
     ASYNCHRONOUS TRACKING ELEMENT LOOP STARTED
  

  NUMBER OF EQUATIONS =      5370     NUMBER OF RHS =    1
  NUMBER OF FLOATING PT. OPERATIONS =  2.81E+07

  USING THE DIRECT SOLVER WITH   4 PROCESSORS

     CHECK POINT   START OF SOLVER    

     CHECK POINT  END OF SOLVER       

       ELAPSED USER TIME (SEC)      =  0.20000    
       ELAPSED SYSTEM TIME (SEC)    =  0.10000    
       ELAPSED TOTAL CPU TIME (SEC) =  0.30000    
       ELAPSED WALLCLOCK TIME (SEC) =          0
  
     ASYNCHRONOUS TRACKING ELEMENT LOOP STARTED
  

               CONVERGENCE CHECKS FOR EQUILIBRIUM ITERATION     1


 AVERAGE FORCE                      9.579E-14   TIME AVG. FORCE       1.000E-02
 LARGEST RESIDUAL FORCE             5.768E-13   AT NODE        803   DOF  1
   INSTANCE: PLATINE-1                                                                       
 LARGEST INCREMENT OF DISP.        -2.581E-02   AT NODE         23   DOF  1
   INSTANCE: PLATINE-1                                                                       
 LARGEST CORRECTION TO DISP.        1.874E-04   AT NODE         20   DOF  1
   INSTANCE: PLATINE-1                                                                       
          THERE IS ZERO FORCE     EVERYWHERE
 

 ***WARNING: THERE IS ZERO FORCE EVERYWHERE IN THE MODEL BASED ON THE DEFAULT 
             CRITERION. PLEASE CHECK THE VALUE OF THE AVERAGE FORCE DURING THE 
             CURRENT ITERATION TO VERIFY THAT THE FORCE IS SMALL ENOUGH TO BE 
             TREATED AS ZERO. IF NOT, PLEASE USE THE SOLUTION CONTROLS TO RESET 
             THE CRITERION FOR ZERO FORCE.

 AVERAGE MOMENT                      0.00       TIME AVG. MOMENT      1.579E-02
                                                (FROM FORCE     FIELD)
 ALL MOMENT    RESIDUALS ARE ZERO
 LARGEST INCREMENT OF ROTATION     -4.717E-61   AT NODE        765   DOF  6
   INSTANCE: WZ_MATRIZE-1                                                                    
 LARGEST CORRECTION TO ROTATION    -2.078E-60   AT NODE        765   DOF  6
   INSTANCE: WZ_MATRIZE-1                                                                    
          THERE IS ZERO MOMENT    EVERYWHERE

 AVERAGE HEAT FLUX                  0.627       TIME AVG. HEAT FLUX   0.607    
 LARGEST RESIDUAL HEAT FLUX         1.314E-04   AT NODE        548   DOF 11
   INSTANCE: PLATINE-1                                                                       
 LARGEST INCREMENT OF TEMP.          15.9       AT NODE        177   DOF 11
   INSTANCE: PLATINE-1                                                                       
 LARGEST CORRECTION TO TEMP.       -0.115       AT NODE         48   DOF 11
   INSTANCE: PLATINE-1                                                                       
          THE HEAT FLUX EQUILIBRIUM EQUATIONS HAVE CONVERGED

 MAXIMUM NON-PRESCRIBED INCREMENT IN TEMPERATURE IS    15.9    

 ITERATION SUMMARY FOR THE INCREMENT:   1 TOTAL ITERATIONS, OF WHICH
   0 ARE SEVERE DISCONTINUITY ITERATIONS AND  1 ARE EQUILIBRIUM ITERATIONS.

 TIME INCREMENT COMPLETED   5.52    ,  FRACTION OF STEP COMPLETED  0.199    
 STEP TIME COMPLETED        71.6    ,  TOTAL TIME COMPLETED         71.6    


  INCREMENT    15 STARTS. ATTEMPT NUMBER  1, TIME INCREMENT   5.52    
  
     ASYNCHRONOUS TRACKING ELEMENT LOOP STARTED
  

  NUMBER OF EQUATIONS =      5370     NUMBER OF RHS =    1
  NUMBER OF FLOATING PT. OPERATIONS =  2.81E+07

  USING THE DIRECT SOLVER WITH   4 PROCESSORS

     CHECK POINT   START OF SOLVER    

     CHECK POINT  END OF SOLVER       

       ELAPSED USER TIME (SEC)      =   0.0000    
       ELAPSED SYSTEM TIME (SEC)    =   0.0000    
       ELAPSED TOTAL CPU TIME (SEC) =   0.0000    
       ELAPSED WALLCLOCK TIME (SEC) =          0
  
     ASYNCHRONOUS TRACKING ELEMENT LOOP STARTED
  

               CONVERGENCE CHECKS FOR EQUILIBRIUM ITERATION     1


 AVERAGE FORCE                      1.132E-13   TIME AVG. FORCE       1.000E-02
 LARGEST RESIDUAL FORCE             4.574E-13   AT NODE        763   DOF  1
   INSTANCE: PLATINE-1                                                                       
 LARGEST INCREMENT OF DISP.        -2.563E-02   AT NODE         21   DOF  1
   INSTANCE: PLATINE-1                                                                       
 LARGEST CORRECTION TO DISP.        1.832E-04   AT NODE         23   DOF  1
   INSTANCE: PLATINE-1                                                                       
          THERE IS ZERO FORCE     EVERYWHERE
 

 ***WARNING: THERE IS ZERO FORCE EVERYWHERE IN THE MODEL BASED ON THE DEFAULT 
             CRITERION. PLEASE CHECK THE VALUE OF THE AVERAGE FORCE DURING THE 
             CURRENT ITERATION TO VERIFY THAT THE FORCE IS SMALL ENOUGH TO BE 
             TREATED AS ZERO. IF NOT, PLEASE USE THE SOLUTION CONTROLS TO RESET 
             THE CRITERION FOR ZERO FORCE.

 AVERAGE MOMENT                      0.00       TIME AVG. MOMENT      1.579E-02
                                                (FROM FORCE     FIELD)
 ALL MOMENT    RESIDUALS ARE ZERO
 LARGEST INCREMENT OF ROTATION     -1.636E-60   AT NODE        765   DOF  6
   INSTANCE: WZ_MATRIZE-1                                                                    
 LARGEST CORRECTION TO ROTATION    -1.165E-60   AT NODE        765   DOF  6
   INSTANCE: WZ_MATRIZE-1                                                                    
          THERE IS ZERO MOMENT    EVERYWHERE

 AVERAGE HEAT FLUX                  0.627       TIME AVG. HEAT FLUX   0.609    
 LARGEST RESIDUAL HEAT FLUX         1.276E-04   AT NODE        238   DOF 11
   INSTANCE: PLATINE-1                                                                       
 LARGEST INCREMENT OF TEMP.          15.8       AT NODE         60   DOF 11
   INSTANCE: PLATINE-1                                                                       
 LARGEST CORRECTION TO TEMP.       -0.113       AT NODE        684   DOF 11
   INSTANCE: PLATINE-1                                                                       
          THE HEAT FLUX EQUILIBRIUM EQUATIONS HAVE CONVERGED

 MAXIMUM NON-PRESCRIBED INCREMENT IN TEMPERATURE IS    15.8    

 ITERATION SUMMARY FOR THE INCREMENT:   1 TOTAL ITERATIONS, OF WHICH
   0 ARE SEVERE DISCONTINUITY ITERATIONS AND  1 ARE EQUILIBRIUM ITERATIONS.

 TIME INCREMENT COMPLETED   5.52    ,  FRACTION OF STEP COMPLETED  0.214    
 STEP TIME COMPLETED        77.1    ,  TOTAL TIME COMPLETED         77.1    


  INCREMENT    16 STARTS. ATTEMPT NUMBER  1, TIME INCREMENT   5.52    
  
     ASYNCHRONOUS TRACKING ELEMENT LOOP STARTED
  

  NUMBER OF EQUATIONS =      5370     NUMBER OF RHS =    1
  NUMBER OF FLOATING PT. OPERATIONS =  2.81E+07

  USING THE DIRECT SOLVER WITH   4 PROCESSORS

     CHECK POINT   START OF SOLVER    

     CHECK POINT  END OF SOLVER       

       ELAPSED USER TIME (SEC)      =  0.10000    
       ELAPSED SYSTEM TIME (SEC)    =  0.10000    
       ELAPSED TOTAL CPU TIME (SEC) =  0.20000    
       ELAPSED WALLCLOCK TIME (SEC) =          0
  
     ASYNCHRONOUS TRACKING ELEMENT LOOP STARTED
  

               CONVERGENCE CHECKS FOR EQUILIBRIUM ITERATION     1


 AVERAGE FORCE                      1.100E-13   TIME AVG. FORCE       1.000E-02
 LARGEST RESIDUAL FORCE            -5.038E-13   AT NODE        533   DOF  1
   INSTANCE: PLATINE-1                                                                       
 LARGEST INCREMENT OF DISP.        -2.545E-02   AT NODE         24   DOF  1
   INSTANCE: PLATINE-1                                                                       
 LARGEST CORRECTION TO DISP.        1.794E-04   AT NODE         21   DOF  1
   INSTANCE: PLATINE-1                                                                       
          THERE IS ZERO FORCE     EVERYWHERE
 

 ***WARNING: THERE IS ZERO FORCE EVERYWHERE IN THE MODEL BASED ON THE DEFAULT 
             CRITERION. PLEASE CHECK THE VALUE OF THE AVERAGE FORCE DURING THE 
             CURRENT ITERATION TO VERIFY THAT THE FORCE IS SMALL ENOUGH TO BE 
             TREATED AS ZERO. IF NOT, PLEASE USE THE SOLUTION CONTROLS TO RESET 
             THE CRITERION FOR ZERO FORCE.

 AVERAGE MOMENT                      0.00       TIME AVG. MOMENT      1.579E-02
                                                (FROM FORCE     FIELD)
 ALL MOMENT    RESIDUALS ARE ZERO
 LARGEST INCREMENT OF ROTATION     -1.891E-61   AT NODE        765   DOF  6
   INSTANCE: WZ_MATRIZE-1                                                                    
 LARGEST CORRECTION TO ROTATION     1.447E-60   AT NODE        765   DOF  6
   INSTANCE: WZ_MATRIZE-1                                                                    
          THERE IS ZERO MOMENT    EVERYWHERE

 AVERAGE HEAT FLUX                  0.627       TIME AVG. HEAT FLUX   0.610    
 LARGEST RESIDUAL HEAT FLUX         1.240E-04   AT NODE          2   DOF 11
   INSTANCE: PLATINE-1                                                                       
 LARGEST INCREMENT OF TEMP.          15.7       AT NODE        449   DOF 11
   INSTANCE: PLATINE-1                                                                       
 LARGEST CORRECTION TO TEMP.       -0.110       AT NODE        122   DOF 11
   INSTANCE: PLATINE-1                                                                       
          THE HEAT FLUX EQUILIBRIUM EQUATIONS HAVE CONVERGED

 MAXIMUM NON-PRESCRIBED INCREMENT IN TEMPERATURE IS    15.7    

 ITERATION SUMMARY FOR THE INCREMENT:   1 TOTAL ITERATIONS, OF WHICH
   0 ARE SEVERE DISCONTINUITY ITERATIONS AND  1 ARE EQUILIBRIUM ITERATIONS.

 TIME INCREMENT COMPLETED   5.52    ,  FRACTION OF STEP COMPLETED  0.229    
 STEP TIME COMPLETED        82.6    ,  TOTAL TIME COMPLETED         82.6    


  INCREMENT    17 STARTS. ATTEMPT NUMBER  1, TIME INCREMENT   5.52    
  
     ASYNCHRONOUS TRACKING ELEMENT LOOP STARTED
  

  NUMBER OF EQUATIONS =      5370     NUMBER OF RHS =    1
  NUMBER OF FLOATING PT. OPERATIONS =  2.81E+07

  USING THE DIRECT SOLVER WITH   4 PROCESSORS

     CHECK POINT   START OF SOLVER    

     CHECK POINT  END OF SOLVER       

       ELAPSED USER TIME (SEC)      =   0.0000    
       ELAPSED SYSTEM TIME (SEC)    =  0.10000    
       ELAPSED TOTAL CPU TIME (SEC) =  0.10000    
       ELAPSED WALLCLOCK TIME (SEC) =          0
  
     ASYNCHRONOUS TRACKING ELEMENT LOOP STARTED
  

               CONVERGENCE CHECKS FOR EQUILIBRIUM ITERATION     1


 AVERAGE FORCE                      1.254E-13   TIME AVG. FORCE       1.000E-02
 LARGEST RESIDUAL FORCE             5.699E-13   AT NODE        751   DOF  1
   INSTANCE: PLATINE-1                                                                       
 LARGEST INCREMENT OF DISP.        -2.527E-02   AT NODE         23   DOF  1
   INSTANCE: PLATINE-1                                                                       
 LARGEST CORRECTION TO DISP.        1.757E-04   AT NODE         24   DOF  1
   INSTANCE: PLATINE-1                                                                       
          THERE IS ZERO FORCE     EVERYWHERE
 

 ***WARNING: THERE IS ZERO FORCE EVERYWHERE IN THE MODEL BASED ON THE DEFAULT 
             CRITERION. PLEASE CHECK THE VALUE OF THE AVERAGE FORCE DURING THE 
             CURRENT ITERATION TO VERIFY THAT THE FORCE IS SMALL ENOUGH TO BE 
             TREATED AS ZERO. IF NOT, PLEASE USE THE SOLUTION CONTROLS TO RESET 
             THE CRITERION FOR ZERO FORCE.

 AVERAGE MOMENT                      0.00       TIME AVG. MOMENT      1.579E-02
                                                (FROM FORCE     FIELD)
 ALL MOMENT    RESIDUALS ARE ZERO
 LARGEST INCREMENT OF ROTATION      1.623E-60   AT NODE        765   DOF  6
   INSTANCE: WZ_MATRIZE-1                                                                    
 LARGEST CORRECTION TO ROTATION     1.812E-60   AT NODE        765   DOF  6
   INSTANCE: WZ_MATRIZE-1                                                                    
          THERE IS ZERO MOMENT    EVERYWHERE

 AVERAGE HEAT FLUX                  0.627       TIME AVG. HEAT FLUX   0.611    
 LARGEST RESIDUAL HEAT FLUX         1.206E-04   AT NODE        118   DOF 11
   INSTANCE: PLATINE-1                                                                       
 LARGEST INCREMENT OF TEMP.          15.6       AT NODE        179   DOF 11
   INSTANCE: PLATINE-1                                                                       
 LARGEST CORRECTION TO TEMP.       -0.108       AT NODE        208   DOF 11
   INSTANCE: PLATINE-1                                                                       
          THE HEAT FLUX EQUILIBRIUM EQUATIONS HAVE CONVERGED

 MAXIMUM NON-PRESCRIBED INCREMENT IN TEMPERATURE IS    15.6    

 ITERATION SUMMARY FOR THE INCREMENT:   1 TOTAL ITERATIONS, OF WHICH
   0 ARE SEVERE DISCONTINUITY ITERATIONS AND  1 ARE EQUILIBRIUM ITERATIONS.

 TIME INCREMENT COMPLETED   5.52    ,  FRACTION OF STEP COMPLETED  0.245    
 STEP TIME COMPLETED        88.1    ,  TOTAL TIME COMPLETED         88.1    


  INCREMENT    18 STARTS. ATTEMPT NUMBER  1, TIME INCREMENT   5.52    
  
     ASYNCHRONOUS TRACKING ELEMENT LOOP STARTED
  

  NUMBER OF EQUATIONS =      5370     NUMBER OF RHS =    1
  NUMBER OF FLOATING PT. OPERATIONS =  2.81E+07

  USING THE DIRECT SOLVER WITH   4 PROCESSORS

     CHECK POINT   START OF SOLVER    

     CHECK POINT  END OF SOLVER       

       ELAPSED USER TIME (SEC)      =  0.10000    
       ELAPSED SYSTEM TIME (SEC)    =   0.0000    
       ELAPSED TOTAL CPU TIME (SEC) =  0.10000    
       ELAPSED WALLCLOCK TIME (SEC) =          0
  
     ASYNCHRONOUS TRACKING ELEMENT LOOP STARTED
  

               CONVERGENCE CHECKS FOR EQUILIBRIUM ITERATION     1


 AVERAGE FORCE                      1.180E-13   TIME AVG. FORCE       1.000E-02
 LARGEST RESIDUAL FORCE             4.534E-13   AT NODE        437   DOF  1
   INSTANCE: PLATINE-1                                                                       
 LARGEST INCREMENT OF DISP.        -2.511E-02   AT NODE         20   DOF  1
   INSTANCE: PLATINE-1                                                                       
 LARGEST CORRECTION TO DISP.        1.657E-04   AT NODE         23   DOF  1
   INSTANCE: PLATINE-1                                                                       
          THERE IS ZERO FORCE     EVERYWHERE
 

 ***WARNING: THERE IS ZERO FORCE EVERYWHERE IN THE MODEL BASED ON THE DEFAULT 
             CRITERION. PLEASE CHECK THE VALUE OF THE AVERAGE FORCE DURING THE 
             CURRENT ITERATION TO VERIFY THAT THE FORCE IS SMALL ENOUGH TO BE 
             TREATED AS ZERO. IF NOT, PLEASE USE THE SOLUTION CONTROLS TO RESET 
             THE CRITERION FOR ZERO FORCE.

 AVERAGE MOMENT                      0.00       TIME AVG. MOMENT      1.579E-02
                                                (FROM FORCE     FIELD)
 ALL MOMENT    RESIDUALS ARE ZERO
 LARGEST INCREMENT OF ROTATION     -5.230E-61   AT NODE        765   DOF  6
   INSTANCE: WZ_MATRIZE-1                                                                    
 LARGEST CORRECTION TO ROTATION    -2.146E-60   AT NODE        765   DOF  6
   INSTANCE: WZ_MATRIZE-1                                                                    
          THERE IS ZERO MOMENT    EVERYWHERE

 AVERAGE HEAT FLUX                  0.627       TIME AVG. HEAT FLUX   0.612    
 LARGEST RESIDUAL HEAT FLUX         8.007E-05   AT NODE        132   DOF 11
   INSTANCE: PLATINE-1                                                                       
 LARGEST INCREMENT OF TEMP.          15.5       AT NODE        220   DOF 11
   INSTANCE: PLATINE-1                                                                       
 LARGEST CORRECTION TO TEMP.       -0.102       AT NODE        954   DOF 11
   INSTANCE: PLATINE-1                                                                       
          THE HEAT FLUX EQUILIBRIUM EQUATIONS HAVE CONVERGED

 MAXIMUM NON-PRESCRIBED INCREMENT IN TEMPERATURE IS    15.5    

 ITERATION SUMMARY FOR THE INCREMENT:   1 TOTAL ITERATIONS, OF WHICH
   0 ARE SEVERE DISCONTINUITY ITERATIONS AND  1 ARE EQUILIBRIUM ITERATIONS.

 TIME INCREMENT COMPLETED   5.52    ,  FRACTION OF STEP COMPLETED  0.260    
 STEP TIME COMPLETED        93.7    ,  TOTAL TIME COMPLETED         93.7    


  INCREMENT    19 STARTS. ATTEMPT NUMBER  1, TIME INCREMENT   5.52    
  
     ASYNCHRONOUS TRACKING ELEMENT LOOP STARTED
  

  NUMBER OF EQUATIONS =      5370     NUMBER OF RHS =    1
  NUMBER OF FLOATING PT. OPERATIONS =  2.81E+07

  USING THE DIRECT SOLVER WITH   4 PROCESSORS

     CHECK POINT   START OF SOLVER    

     CHECK POINT  END OF SOLVER       

       ELAPSED USER TIME (SEC)      =   0.0000    
       ELAPSED SYSTEM TIME (SEC)    =  0.10000    
       ELAPSED TOTAL CPU TIME (SEC) =  0.10000    
       ELAPSED WALLCLOCK TIME (SEC) =          0
  
     ASYNCHRONOUS TRACKING ELEMENT LOOP STARTED
  

               CONVERGENCE CHECKS FOR EQUILIBRIUM ITERATION     1


 AVERAGE FORCE                      1.242E-13   TIME AVG. FORCE       1.000E-02
 LARGEST RESIDUAL FORCE             4.583E-13   AT NODE        524   DOF  1
   INSTANCE: PLATINE-1                                                                       
 LARGEST INCREMENT OF DISP.        -2.499E-02   AT NODE         20   DOF  1
   INSTANCE: PLATINE-1                                                                       
 LARGEST CORRECTION TO DISP.        1.198E-04   AT NODE         20   DOF  1
[...]
 LARGEST CORRECTION TO TEMP.        -2.22       AT NODE         79   DOF 11
   INSTANCE: PLATINE-1                                                                       
          HEAT FLUX EQUILIBRIUM NOT ACHIEVED WITHIN TOLERANCE.

  NUMBER OF EQUATIONS =      5399     NUMBER OF RHS =    1
  NUMBER OF FLOATING PT. OPERATIONS =  3.65E+07

  USING THE DIRECT SOLVER WITH   4 PROCESSORS

     CHECK POINT   START OF SOLVER    

     CHECK POINT  END OF SOLVER       

       ELAPSED USER TIME (SEC)      =  0.10000    
       ELAPSED SYSTEM TIME (SEC)    =   0.0000    
       ELAPSED TOTAL CPU TIME (SEC) =  0.10000    
       ELAPSED WALLCLOCK TIME (SEC) =          0
  
     ASYNCHRONOUS TRACKING ELEMENT LOOP STARTED
  

                    2 SEVERE DISCONTINUITIES OCCURRED DURING THIS ITERATION.
                    2 POINTS CHANGED FROM CLOSED TO OPEN

               CONVERGENCE CHECKS FOR SEVERE DISCONTINUITY ITERATION     5

   MAX. PENETRATION ERROR 3.25092E-12 AT NODE PLATINE-1.82 OF CONTACT PAIR 
   (ASSEMBLY_PLATINE_OBEN,ASSEMBLY_STEMPEL_KONTAKT)
   MAX. CONTACT FORCE ERROR -1.71547     AT NODE PLATINE-1.81 OF CONTACT PAIR 
   (ASSEMBLY_PLATINE_OBEN,ASSEMBLY_STEMPEL_KONTAKT)
          THE ESTIMATED CONTACT FORCE ERROR IS OUTSIDE OF CONVERGENCE TOLERANCES.

 AVERAGE FORCE                      9.677E-02   TIME AVG. FORCE       5.277E-02
 LARGEST RESIDUAL FORCE            -0.965       AT NODE         81   DOF  2
   INSTANCE: PLATINE-1                                                                       
 LARGEST INCREMENT OF DISP.        -0.168       AT NODE          1   DOF  2
   INSTANCE: WZ_STEMPEL-1                                                                    
 LARGEST CORRECTION TO DISP.       -7.162E-04   AT NODE         19   DOF  2
   INSTANCE: PLATINE-1                                                                       
          FORCE     EQUILIBRIUM NOT ACHIEVED WITHIN TOLERANCE.

 AVERAGE MOMENT                      0.00       TIME AVG. MOMENT      1.385E-02
                                                (FROM FORCE     FIELD)
 ALL MOMENT    RESIDUALS ARE ZERO
 LARGEST INCREMENT OF ROTATION     -5.313E-36   AT NODE        563   DOF  6
   INSTANCE: WZ_STEMPEL-1                                                                    
 LARGEST CORRECTION TO ROTATION     1.963E-37   AT NODE        563   DOF  6
   INSTANCE: WZ_STEMPEL-1                                                                    
          THERE IS ZERO MOMENT    EVERYWHERE

 AVERAGE HEAT FLUX                   9.84       TIME AVG. HEAT FLUX    9.11    
 LARGEST RESIDUAL HEAT FLUX          675.       AT NODE        394   DOF 11
   INSTANCE: WZ_STEMPEL-1                                                                    
 LARGEST INCREMENT OF TEMP.         0.986       AT NODE         81   DOF 11
   INSTANCE: PLATINE-1                                                                       
 LARGEST CORRECTION TO TEMP.         1.12       AT NODE         81   DOF 11
   INSTANCE: PLATINE-1                                                                       
          HEAT FLUX EQUILIBRIUM NOT ACHIEVED WITHIN TOLERANCE.

  NUMBER OF EQUATIONS =      5401     NUMBER OF RHS =    1
  NUMBER OF FLOATING PT. OPERATIONS =  3.67E+07

  USING THE DIRECT SOLVER WITH   4 PROCESSORS

     CHECK POINT   START OF SOLVER    

     CHECK POINT  END OF SOLVER       

       ELAPSED USER TIME (SEC)      =   0.0000    
       ELAPSED SYSTEM TIME (SEC)    =   0.0000    
       ELAPSED TOTAL CPU TIME (SEC) =   0.0000    
       ELAPSED WALLCLOCK TIME (SEC) =          0
  
     ASYNCHRONOUS TRACKING ELEMENT LOOP STARTED
  

                    7 SEVERE DISCONTINUITIES OCCURRED DURING THIS ITERATION.
                    6 POINTS CHANGED FROM OPEN TO CLOSED
                    1 POINTS CHANGED FROM CLOSED TO OPEN

               CONVERGENCE CHECKS FOR SEVERE DISCONTINUITY ITERATION     6

   MAX. PENETRATION ERROR 667.342E-09   AT NODE PLATINE-1.87 OF CONTACT PAIR 
   (ASSEMBLY_PLATINE_OBEN,ASSEMBLY_STEMPEL_KONTAKT)
   MAX. CONTACT FORCE ERROR -1.67510     AT NODE PLATINE-1.82 OF CONTACT PAIR 
   (ASSEMBLY_PLATINE_OBEN,ASSEMBLY_STEMPEL_KONTAKT)
          THE ESTIMATED CONTACT FORCE ERROR IS OUTSIDE OF CONVERGENCE TOLERANCES.

 AVERAGE FORCE                      9.635E-02   TIME AVG. FORCE       5.256E-02
 LARGEST RESIDUAL FORCE            -0.942       AT NODE         82   DOF  2
   INSTANCE: PLATINE-1                                                                       
 LARGEST INCREMENT OF DISP.        -0.168       AT NODE          1   DOF  2
   INSTANCE: WZ_STEMPEL-1                                                                    
 LARGEST CORRECTION TO DISP.       -8.312E-04   AT NODE         20   DOF  2
   INSTANCE: PLATINE-1                                                                       
          FORCE     EQUILIBRIUM NOT ACHIEVED WITHIN TOLERANCE.

 AVERAGE MOMENT                      0.00       TIME AVG. MOMENT      1.385E-02
                                                (FROM FORCE     FIELD)
 ALL MOMENT    RESIDUALS ARE ZERO
 LARGEST INCREMENT OF ROTATION     -5.236E-36   AT NODE        563   DOF  6
   INSTANCE: WZ_STEMPEL-1                                                                    
 LARGEST CORRECTION TO ROTATION     7.716E-38   AT NODE        563   DOF  6
   INSTANCE: WZ_STEMPEL-1                                                                    
          THERE IS ZERO MOMENT    EVERYWHERE

 AVERAGE HEAT FLUX                   9.85       TIME AVG. HEAT FLUX    9.11    
 LARGEST RESIDUAL HEAT FLUX         -595.       AT NODE         82   DOF 11
   INSTANCE: PLATINE-1                                                                       
 LARGEST INCREMENT OF TEMP.         0.952       AT NODE         82   DOF 11
   INSTANCE: PLATINE-1                                                                       
 LARGEST CORRECTION TO TEMP.         1.14       AT NODE         82   DOF 11
   INSTANCE: PLATINE-1                                                                       
          HEAT FLUX EQUILIBRIUM NOT ACHIEVED WITHIN TOLERANCE.

  NUMBER OF EQUATIONS =      5396     NUMBER OF RHS =    1
  NUMBER OF FLOATING PT. OPERATIONS =  3.61E+07

  USING THE DIRECT SOLVER WITH   4 PROCESSORS

     CHECK POINT   START OF SOLVER    

     CHECK POINT  END OF SOLVER       

       ELAPSED USER TIME (SEC)      =  0.10000    
       ELAPSED SYSTEM TIME (SEC)    =   0.0000    
       ELAPSED TOTAL CPU TIME (SEC) =  0.10000    
       ELAPSED WALLCLOCK TIME (SEC) =          0
  
     ASYNCHRONOUS TRACKING ELEMENT LOOP STARTED
  

                    4 SEVERE DISCONTINUITIES OCCURRED DURING THIS ITERATION.
                    4 POINTS CHANGED FROM CLOSED TO OPEN

               CONVERGENCE CHECKS FOR SEVERE DISCONTINUITY ITERATION     7

   MAX. PENETRATION ERROR 3.44179E-12 AT NODE PLATINE-1.84 OF CONTACT PAIR 
   (ASSEMBLY_PLATINE_OBEN,ASSEMBLY_STEMPEL_KONTAKT)
   MAX. CONTACT FORCE ERROR -1.63596     AT NODE PLATINE-1.83 OF CONTACT PAIR 
   (ASSEMBLY_PLATINE_OBEN,ASSEMBLY_STEMPEL_KONTAKT)
          THE ESTIMATED CONTACT FORCE ERROR IS OUTSIDE OF CONVERGENCE TOLERANCES.

 AVERAGE FORCE                      9.451E-02   TIME AVG. FORCE       5.164E-02
 LARGEST RESIDUAL FORCE            -0.920       AT NODE         83   DOF  2
   INSTANCE: PLATINE-1                                                                       
 LARGEST INCREMENT OF DISP.        -0.168       AT NODE          1   DOF  2
   INSTANCE: WZ_STEMPEL-1                                                                    
 LARGEST CORRECTION TO DISP.       -8.200E-04   AT NODE         20   DOF  2
   INSTANCE: PLATINE-1                                                                       
          FORCE     EQUILIBRIUM NOT ACHIEVED WITHIN TOLERANCE.

 AVERAGE MOMENT                      0.00       TIME AVG. MOMENT      1.385E-02
                                                (FROM FORCE     FIELD)
 ALL MOMENT    RESIDUALS ARE ZERO
 LARGEST INCREMENT OF ROTATION     -5.169E-36   AT NODE        563   DOF  6
   INSTANCE: WZ_STEMPEL-1                                                                    
 LARGEST CORRECTION TO ROTATION     6.634E-38   AT NODE        563   DOF  6
   INSTANCE: WZ_STEMPEL-1                                                                    
          THERE IS ZERO MOMENT    EVERYWHERE

 AVERAGE HEAT FLUX                   9.84       TIME AVG. HEAT FLUX    9.11    
 LARGEST RESIDUAL HEAT FLUX         -581.       AT NODE         83   DOF 11
   INSTANCE: PLATINE-1                                                                       
 LARGEST INCREMENT OF TEMP.         0.920       AT NODE         83   DOF 11
   INSTANCE: PLATINE-1                                                                       
 LARGEST CORRECTION TO TEMP.         1.15       AT NODE         83   DOF 11
   INSTANCE: PLATINE-1                                                                       
          HEAT FLUX EQUILIBRIUM NOT ACHIEVED WITHIN TOLERANCE.

  NUMBER OF EQUATIONS =      5400     NUMBER OF RHS =    1
  NUMBER OF FLOATING PT. OPERATIONS =  3.65E+07

  USING THE DIRECT SOLVER WITH   4 PROCESSORS

     CHECK POINT   START OF SOLVER    

     CHECK POINT  END OF SOLVER       

       ELAPSED USER TIME (SEC)      =  0.10000    
       ELAPSED SYSTEM TIME (SEC)    =  0.10000    
       ELAPSED TOTAL CPU TIME (SEC) =  0.20000    
       ELAPSED WALLCLOCK TIME (SEC) =          0
  
     ASYNCHRONOUS TRACKING ELEMENT LOOP STARTED
  

                    1 SEVERE DISCONTINUITIES OCCURRED DURING THIS ITERATION.
                    1 POINTS CHANGED FROM CLOSED TO OPEN

               CONVERGENCE CHECKS FOR SEVERE DISCONTINUITY ITERATION     8

   MAX. PENETRATION ERROR 3.49502E-12 AT NODE PLATINE-1.85 OF CONTACT PAIR 
   (ASSEMBLY_PLATINE_OBEN,ASSEMBLY_STEMPEL_KONTAKT)
   MAX. CONTACT FORCE ERROR -1.60067     AT NODE PLATINE-1.84 OF CONTACT PAIR 
   (ASSEMBLY_PLATINE_OBEN,ASSEMBLY_STEMPEL_KONTAKT)
          THE ESTIMATED CONTACT FORCE ERROR IS OUTSIDE OF CONVERGENCE TOLERANCES.

 AVERAGE FORCE                      9.389E-02   TIME AVG. FORCE       5.133E-02
 LARGEST RESIDUAL FORCE            -0.900       AT NODE         84   DOF  2
   INSTANCE: PLATINE-1                                                                       
 LARGEST INCREMENT OF DISP.        -0.168       AT NODE          1   DOF  2
   INSTANCE: WZ_STEMPEL-1                                                                    
 LARGEST CORRECTION TO DISP.       -7.993E-04   AT NODE         24   DOF  2
   INSTANCE: PLATINE-1                                                                       
          FORCE     EQUILIBRIUM NOT ACHIEVED WITHIN TOLERANCE.

 AVERAGE MOMENT                      0.00       TIME AVG. MOMENT      1.385E-02
                                                (FROM FORCE     FIELD)
 ALL MOMENT    RESIDUALS ARE ZERO
 LARGEST INCREMENT OF ROTATION     -5.093E-36   AT NODE        563   DOF  6
   INSTANCE: WZ_STEMPEL-1                                                                    
 LARGEST CORRECTION TO ROTATION     7.677E-38   AT NODE        563   DOF  6
   INSTANCE: WZ_STEMPEL-1                                                                    
          THERE IS ZERO MOMENT    EVERYWHERE

 AVERAGE HEAT FLUX                   9.82       TIME AVG. HEAT FLUX    9.10    
 LARGEST RESIDUAL HEAT FLUX          622.       AT NODE        135   DOF 11
   INSTANCE: WZ_STEMPEL-1                                                                    
 LARGEST INCREMENT OF TEMP.         0.891       AT NODE         84   DOF 11
   INSTANCE: PLATINE-1                                                                       
 LARGEST CORRECTION TO TEMP.         1.15       AT NODE         84   DOF 11
   INSTANCE: PLATINE-1                                                                       
          HEAT FLUX EQUILIBRIUM NOT ACHIEVED WITHIN TOLERANCE.

  NUMBER OF EQUATIONS =      5401     NUMBER OF RHS =    1
  NUMBER OF FLOATING PT. OPERATIONS =  3.66E+07

  USING THE DIRECT SOLVER WITH   4 PROCESSORS

     CHECK POINT   START OF SOLVER    

     CHECK POINT  END OF SOLVER       

       ELAPSED USER TIME (SEC)      =  0.10000    
       ELAPSED SYSTEM TIME (SEC)    =   0.0000    
       ELAPSED TOTAL CPU TIME (SEC) =  0.10000    
       ELAPSED WALLCLOCK TIME (SEC) =          0
  
     ASYNCHRONOUS TRACKING ELEMENT LOOP STARTED
  

                    4 SEVERE DISCONTINUITIES OCCURRED DURING THIS ITERATION.
                    3 POINTS CHANGED FROM OPEN TO CLOSED
                    1 POINTS CHANGED FROM CLOSED TO OPEN

               CONVERGENCE CHECKS FOR SEVERE DISCONTINUITY ITERATION     9

   MAX. PENETRATION ERROR 645.060E-09   AT NODE PLATINE-1.90 OF CONTACT PAIR 
   (ASSEMBLY_PLATINE_OBEN,ASSEMBLY_STEMPEL_KONTAKT)
   MAX. CONTACT FORCE ERROR -1.56882     AT NODE PLATINE-1.85 OF CONTACT PAIR 
   (ASSEMBLY_PLATINE_OBEN,ASSEMBLY_STEMPEL_KONTAKT)
          THE ESTIMATED CONTACT FORCE ERROR IS OUTSIDE OF CONVERGENCE TOLERANCES.

 AVERAGE FORCE                      9.337E-02   TIME AVG. FORCE       5.107E-02
 LARGEST RESIDUAL FORCE            -0.882       AT NODE         85   DOF  2
   INSTANCE: PLATINE-1                                                                       
 LARGEST INCREMENT OF DISP.        -0.168       AT NODE          1   DOF  2
   INSTANCE: WZ_STEMPEL-1                                                                    
 LARGEST CORRECTION TO DISP.       -7.885E-04   AT NODE         20   DOF  2
   INSTANCE: PLATINE-1                                                                       
          FORCE     EQUILIBRIUM NOT ACHIEVED WITHIN TOLERANCE.

 AVERAGE MOMENT                      0.00       TIME AVG. MOMENT      1.385E-02
                                                (FROM FORCE     FIELD)
 ALL MOMENT    RESIDUALS ARE ZERO
 LARGEST INCREMENT OF ROTATION     -5.028E-36   AT NODE        563   DOF  6
   INSTANCE: WZ_STEMPEL-1                                                                    
 LARGEST CORRECTION TO ROTATION     6.438E-38   AT NODE        563   DOF  6
   INSTANCE: WZ_STEMPEL-1                                                                    
          THERE IS ZERO MOMENT    EVERYWHERE

 AVERAGE HEAT FLUX                   9.80       TIME AVG. HEAT FLUX    9.09    
 LARGEST RESIDUAL HEAT FLUX          711.       AT NODE        135   DOF 11
   INSTANCE: WZ_STEMPEL-1                                                                    
 LARGEST INCREMENT OF TEMP.         0.866       AT NODE         85   DOF 11
   INSTANCE: PLATINE-1                                                                       
 LARGEST CORRECTION TO TEMP.         1.15       AT NODE         85   DOF 11
   INSTANCE: PLATINE-1                                                                       
          HEAT FLUX EQUILIBRIUM NOT ACHIEVED WITHIN TOLERANCE.

  NUMBER OF EQUATIONS =      5399     NUMBER OF RHS =    1
  NUMBER OF FLOATING PT. OPERATIONS =  3.63E+07

  USING THE DIRECT SOLVER WITH   4 PROCESSORS

     CHECK POINT   START OF SOLVER    

     CHECK POINT  END OF SOLVER       

       ELAPSED USER TIME (SEC)      =  0.10000    
       ELAPSED SYSTEM TIME (SEC)    =   0.0000    
       ELAPSED TOTAL CPU TIME (SEC) =  0.10000    
       ELAPSED WALLCLOCK TIME (SEC) =          0
  
     ASYNCHRONOUS TRACKING ELEMENT LOOP STARTED
  

                    1 SEVERE DISCONTINUITIES OCCURRED DURING THIS ITERATION.
                    1 POINTS CHANGED FROM CLOSED TO OPEN

               CONVERGENCE CHECKS FOR SEVERE DISCONTINUITY ITERATION    10

   MAX. PENETRATION ERROR 3.53544E-12 AT NODE PLATINE-1.87 OF CONTACT PAIR 
   (ASSEMBLY_PLATINE_OBEN,ASSEMBLY_STEMPEL_KONTAKT)
   MAX. CONTACT FORCE ERROR -1.53744     AT NODE PLATINE-1.86 OF CONTACT PAIR 
   (ASSEMBLY_PLATINE_OBEN,ASSEMBLY_STEMPEL_KONTAKT)
          THE ESTIMATED CONTACT FORCE ERROR IS OUTSIDE OF CONVERGENCE TOLERANCES.

 AVERAGE FORCE                      9.179E-02   TIME AVG. FORCE       5.028E-02
 LARGEST RESIDUAL FORCE            -0.865       AT NODE         86   DOF  2
   INSTANCE: PLATINE-1                                                                       
 LARGEST INCREMENT OF DISP.        -0.168       AT NODE          1   DOF  2
   INSTANCE: WZ_STEMPEL-1                                                                    
 LARGEST CORRECTION TO DISP.       -7.732E-04   AT NODE         22   DOF  2
   INSTANCE: PLATINE-1                                                                       
          FORCE     EQUILIBRIUM NOT ACHIEVED WITHIN TOLERANCE.

 AVERAGE MOMENT                      0.00       TIME AVG. MOMENT      1.385E-02
                                                (FROM FORCE     FIELD)
 ALL MOMENT    RESIDUALS ARE ZERO
 LARGEST INCREMENT OF ROTATION     -4.950E-36   AT NODE        563   DOF  6
   INSTANCE: WZ_STEMPEL-1                                                                    
 LARGEST CORRECTION TO ROTATION     7.856E-38   AT NODE        563   DOF  6
   INSTANCE: WZ_STEMPEL-1                                                                    
          THERE IS ZERO MOMENT    EVERYWHERE

 AVERAGE HEAT FLUX                   9.78       TIME AVG. HEAT FLUX    9.08    
 LARGEST RESIDUAL HEAT FLUX          610.       AT NODE        135   DOF 11
   INSTANCE: WZ_STEMPEL-1                                                                    
 LARGEST INCREMENT OF TEMP.         0.842       AT NODE         86   DOF 11
   INSTANCE: PLATINE-1                                                                       
 LARGEST CORRECTION TO TEMP.         1.15       AT NODE         86   DOF 11
   INSTANCE: PLATINE-1                                                                       
          HEAT FLUX EQUILIBRIUM NOT ACHIEVED WITHIN TOLERANCE.

  NUMBER OF EQUATIONS =      5400     NUMBER OF RHS =    1
  NUMBER OF FLOATING PT. OPERATIONS =  3.64E+07

  USING THE DIRECT SOLVER WITH   4 PROCESSORS

     CHECK POINT   START OF SOLVER    

     CHECK POINT  END OF SOLVER       

       ELAPSED USER TIME (SEC)      =   0.0000    
       ELAPSED SYSTEM TIME (SEC)    =   0.0000    
       ELAPSED TOTAL CPU TIME (SEC) =   0.0000    
       ELAPSED WALLCLOCK TIME (SEC) =          1

 ***ERROR: Process terminated by external request (SIGTERM or SIGINT received).



     ANALYSIS SUMMARY:
     TOTAL OF         90  INCREMENTS
                       2  CUTBACKS IN AUTOMATIC INCREMENTATION
                     131  ITERATIONS INCLUDING CONTACT ITERATIONS IF PRESENT
                     131  PASSES THROUGH THE EQUATION SOLVER OF WHICH 
                     131  INVOLVE MATRIX DECOMPOSITION, INCLUDING
                       0  DECOMPOSITION(S) OF THE MASS MATRIX
                       1  REORDERING OF EQUATIONS TO MINIMIZE WAVEFRONT
                       0  ADDITIONAL RESIDUAL EVALUATIONS FOR LINE SEARCHES
                       0  ADDITIONAL OPERATOR EVALUATIONS FOR LINE SEARCHES
                       3  WARNING MESSAGES DURING USER INPUT PROCESSING
                     369  WARNING MESSAGES DURING ANALYSIS
                     296  ANALYSIS WARNINGS ARE NUMERICAL PROBLEM MESSAGES
                       0  ANALYSIS WARNINGS ARE NEGATIVE EIGENVALUE MESSAGES
                       1  ERROR MESSAGES



     JOB TIME SUMMARY
       USER TIME (SEC)      =   47.100    
       SYSTEM TIME (SEC)    =   10.300    
       TOTAL CPU TIME (SEC) =   57.400    
       WALLCLOCK TIME (SEC) =         32
