 Abaqus/Standard 2021                  DATE 09-Mar-2022 TIME 10:36:38
 SUMMARY OF JOB INFORMATION:
 STEP  INC ATT SEVERE EQUIL TOTAL  TOTAL      STEP       INC OF       DOF    IF
               DISCON ITERS ITERS  TIME/    TIME/LPF    TIME/LPF    MONITOR RIKS
               ITERS               FREQ
   1     1   1U    0     2     2  0.00       0.00       6.000     
   1     1   2     0     2     2  5.08       5.08       5.081     
   1     2   1     0     1     1  10.2       10.2       5.081     
   1     3   1     0     1     1  15.2       15.2       5.081     
   1     4   1     0     1     1  20.3       20.3       5.081     
   1     5   1     0     1     1  25.4       25.4       5.081     
   1     6   1     0     1     1  30.5       30.5       5.081     
   1     7   1     0     1     1  35.6       35.6       5.081     
   1     8   1     0     1     1  40.6       40.6       5.081     
   1     9   1     0     1     1  45.7       45.7       5.081     
   1    10   1     0     1     1  50.8       50.8       5.081     
   1    11   1     0     1     1  55.9       55.9       5.081     
   1    12   1     0     1     1  61.0       61.0       5.081     
   1    13   1     0     1     1  66.0       66.0       5.081     
   1    14   1     0     1     1  71.6       71.6       5.524     
   1    15   1     0     1     1  77.1       77.1       5.524     
   1    16   1     0     1     1  82.6       82.6       5.524     
   1    17   1     0     1     1  88.1       88.1       5.524     
   1    18   1     0     1     1  93.7       93.7       5.524     
   1    19   1     0     1     1  99.2       99.2       5.524     
   1    20   1     0     1     1  105.       105.       5.524     
   1    21   1     0     1     1  110.       110.       5.524     
   1    22   1     0     1     1  116.       116.       5.524     
   1    23   1     0     1     1  121.       121.       5.524     
   1    24   1     0     1     1  127.       127.       5.524     
   1    25   1     0     1     1  132.       132.       5.524     
   1    26   1     0     1     1  138.       138.       5.524     
   1    27   1     0     1     1  143.       143.       5.524     
   1    28   1     0     1     1  149.       149.       5.943     
   1    29   1     0     1     1  155.       155.       5.943     
   1    30   1     0     1     1  161.       161.       5.943     
   1    31   1     0     1     1  167.       167.       5.943     
   1    32   1     0     1     1  173.       173.       5.943     
   1    33   1     0     1     1  179.       179.       5.943     
   1    34   1     0     1     1  185.       185.       5.943     
   1    35   1     0     1     1  191.       191.       5.943     
   1    36   1     0     1     1  197.       197.       5.943     
   1    37   1     0     1     1  203.       203.       5.943     
   1    38   1     0     1     1  209.       209.       5.943     
   1    39   1     0     1     1  215.       215.       5.943     
   1    40   1     0     1     1  221.       221.       5.943     
   1    41   1     0     1     1  227.       227.       5.943     
   1    42   1     0     1     1  233.       233.       5.943     
   1    43   1     0     1     1  238.       238.       5.943     
   1    44   1     0     1     1  244.       244.       5.943     
   1    45   1     0     1     1  250.       250.       5.943     
   1    46   1     0     1     1  256.       256.       5.943     
   1    47   1     0     1     1  262.       262.       5.943     
   1    48   1     0     1     1  268.       268.       5.943     
   1    49   1     0     1     1  274.       274.       5.943     
   1    50   1     0     1     1  280.       280.       5.943     
   1    51   1     0     1     1  286.       286.       5.943     
   1    52   1     0     1     1  292.       292.       5.943     
   1    53   1     0     1     1  298.       298.       5.943     
   1    54   1     0     1     1  304.       304.       5.943     
   1    55   1     0     1     1  310.       310.       5.943     
   1    56   1     0     1     1  316.       316.       5.943     
   1    57   1     0     1     1  322.       322.       5.943     
   1    58   1     0     1     1  328.       328.       5.943     
   1    59   1     0     1     1  334.       334.       5.943     
   1    60   1     0     1     1  339.       339.       5.943     
   1    61   1     0     1     1  345.       345.       5.943     
   1    62   1     0     1     1  351.       351.       5.943     
   1    63   1     0     1     1  357.       357.       5.943     
   1    64   1     0     1     1  360.       360.       2.684     
   2     1   1U    0     2     2  360.       0.00       0.3500    
   2     1   2     0     2     2  360.       0.246      0.2459    
   2     2   1     0     2     2  360.       0.492      0.2459    
   2     3   1     0     2     2  361.       0.738      0.2459    
   2     4   1     0     2     2  361.       0.984      0.2459    
   2     5   1     0     2     2  361.       1.23       0.2459    
   2     6   1     0     2     2  361.       1.48       0.2459    
   2     7   1     0     2     2  362.       1.72       0.2459    
   2     8   1     0     2     2  362.       2.00       0.2793    
   2     9   1     0     2     2  362.       2.28       0.2793    
   2    10   1     0     2     2  363.       2.56       0.2793    
   2    11   1     0     2     2  363.       2.84       0.2793    
   2    12   1     0     2     2  363.       3.12       0.2793    
   2    13   1     0     2     2  363.       3.43       0.3131    
   2    14   1     0     2     2  364.       3.74       0.3131    
   2    15   1     0     2     2  364.       4.06       0.3131    
   2    16   1     0     2     2  364.       4.37       0.3131    
   2    17   1     0     2     2  365.       4.68       0.3131    
   2    18   1     0     2     2  365.       5.03       0.3500    
   2    19   1     0     2     2  365.       5.38       0.3500    
   2    20   1     0     2     2  366.       5.73       0.3500    
   2    21   1     0     2     2  366.       6.08       0.3500    
   2    22   1     0     2     2  366.       6.43       0.3500    
   2    23   1     0     2     2  367.       6.78       0.3500    
   2    24   1     0     2     2  367.       7.00       0.2169    
   3     1   1     0     3     3  367.       0.0290     0.02900   
                          
 THE ANALYSIS HAS NOT BEEN COMPLETED
