** 2/3 des Modells zum presshaerten eines Hutprofils
** Loesungsstrategie: Explizit
** Verfahrensschritte: Umformen + Nachdruecken
*Heading
** Job name: WTP-M2_WS880.0_WZ130.0_p16.0 Model name: Model-2_explizit
** Generated by: Abaqus/CAE 2021.HF8
*Preprint, echo=NO, model=NO, history=NO, contact=NO
**
** PARTS
**
**
** ASSEMBLY
**
*Assembly, name=Assembly
**  
*Instance, library=WTP-M1_WS880.0_WZ130.0, instance=Platine-1
** 
** PREDEFINED FIELD
** 
** Name: IMORT_Model-1   Type: Initial State
*Import, state=yes, update=no
*End Instance
**  
*Instance, library=WTP-M1_WS880.0_WZ130.0, instance=WZ_Matrize-1
** 
** PREDEFINED FIELD
** 
** Name: IMORT_Model-1   Type: Initial State
*Import, state=yes, update=no
*End Instance
**  
*Instance, library=WTP-M1_WS880.0_WZ130.0, instance=WZ_Stempel-1
** 
** PREDEFINED FIELD
** 
** Name: IMORT_Model-1   Type: Initial State
*Import, state=yes, update=no
*End Instance
**  
*Elset, elset=Mass-scaling-Elemente, instance=WZ_Stempel-1
 10, 11, 12, 13, 14, 15, 16, 17, 85, 86, 87, 88, 89, 90, 91, 92
*Elset, elset=Mass-scaling-Elemente, instance=WZ_Matrize-1, generate
 60,  67,   1
*Nset, nset=Platine_Auflage, instance=Platine-1
 13, 14
*Elset, elset=Platine_Auflage, instance=Platine-1
 145, 236
*Nset, nset=Platine_Auswerfer, instance=Platine-1
 10, 11
*Elset, elset=Platine_Auswerfer, instance=Platine-1
 144, 312
*Nset, nset=Platine_Gegenkraft, instance=Platine-1
 13, 14
*Nset, nset=Platine_Scheibenschnitt-1, instance=Platine-1
   2,   3,   5,   6,   9,  10,  13,  16,  17,  19,  20,  23, 159, 160, 161, 162
 163, 164, 165, 166, 167, 168, 169, 170, 171, 172, 173, 174, 175, 176, 177, 178
 179, 180, 181, 182, 183, 184, 185, 186, 187, 188, 189, 190, 191, 192, 193, 194
 195, 196, 197, 198, 199, 200, 201, 202, 203, 204, 205, 206, 207, 208, 209, 210
 211, 212, 213, 214, 215, 216, 217, 218, 219, 220, 221, 222, 223, 224, 225, 226
 227, 228, 229, 230, 231, 232, 233, 234, 235, 236, 237, 238, 239, 240, 241, 242
 243, 244, 245, 246, 247, 248, 249, 250, 251, 252, 253, 254, 255, 256, 257, 258
 259, 260, 261, 262, 263, 264, 265, 266, 267, 268, 269, 270, 271, 272, 273, 274
 275, 276, 277, 278, 279, 280, 281, 282, 283, 284, 285, 286, 287, 288, 289, 290
 291, 292, 443, 444, 445, 446, 447, 448, 449, 450, 451, 452, 453, 454, 455, 456
 457, 458, 459, 460, 461, 462, 463, 464, 465, 466, 467, 468, 469, 470, 471, 472
 473, 474, 475, 476, 477, 478, 479, 480, 481, 482, 483, 484, 485, 486, 487, 488
 489, 490, 491, 492, 493, 494, 495, 496, 497, 498, 499, 500, 501, 502, 503, 504
 505, 506, 507, 508, 509, 510, 511, 512, 513, 514, 515, 516, 517, 518, 519, 520
 521, 522, 523, 524, 525, 526, 527, 528, 529, 530, 531, 532, 533, 534, 535, 536
 537, 538, 539, 540, 541, 542, 543, 544, 545, 546, 547, 548, 549, 550, 551, 552
 553, 554, 555, 556, 557, 558, 559, 560, 561, 562, 563, 564, 565, 566, 567, 568
 569, 570, 571, 572, 573, 574, 575, 576, 577, 578, 579, 580, 581, 582, 583, 584
 585, 586, 587, 588, 589, 590, 591, 592, 660, 661, 662, 663, 664, 665, 666, 667
 668, 669, 670, 671, 672, 673, 674, 675, 676, 677, 678, 679, 680, 681, 682, 683
** ... 12 like lines cut
*Elset, elset=Platine_Scheibenschnitt-1, instance=Platine-1, generate
   1,  334,    1
*Nset, nset=Platine_Scheibenschnitt-2, instance=Platine-1
    1,    4,    7,    8,   11,   12,   14,   15,   18,   21,   22,   24,   25,   26,   27,   28
   29,   30,   31,   32,   33,   34,   35,   36,   37,   38,   39,   40,   41,   42,   43,   44
   45,   46,   47,   48,   49,   50,   51,   52,   53,   54,   55,   56,   57,   58,   59,   60
   61,   62,   63,   64,   65,   66,   67,   68,   69,   70,   71,   72,   73,   74,   75,   76
   77,   78,   79,   80,   81,   82,   83,   84,   85,   86,   87,   88,   89,   90,   91,   92
   93,   94,   95,   96,   97,   98,   99,  100,  101,  102,  103,  104,  105,  106,  107,  108
  109,  110,  111,  112,  113,  114,  115,  116,  117,  118,  119,  120,  121,  122,  123,  124
  125,  126,  127,  128,  129,  130,  131,  132,  133,  134,  135,  136,  137,  138,  139,  140
  141,  142,  143,  144,  145,  146,  147,  148,  149,  150,  151,  152,  153,  154,  155,  156
  157,  158,  293,  294,  295,  296,  297,  298,  299,  300,  301,  302,  303,  304,  305,  306
  307,  308,  309,  310,  311,  312,  313,  314,  315,  316,  317,  318,  319,  320,  321,  322
  323,  324,  325,  326,  327,  328,  329,  330,  331,  332,  333,  334,  335,  336,  337,  338
  339,  340,  341,  342,  343,  344,  345,  346,  347,  348,  349,  350,  351,  352,  353,  354
  355,  356,  357,  358,  359,  360,  361,  362,  363,  364,  365,  366,  367,  368,  369,  370
  371,  372,  373,  374,  375,  376,  377,  378,  379,  380,  381,  382,  383,  384,  385,  386
  387,  388,  389,  390,  391,  392,  393,  394,  395,  396,  397,  398,  399,  400,  401,  402
  403,  404,  405,  406,  407,  408,  409,  410,  411,  412,  413,  414,  415,  416,  417,  418
  419,  420,  421,  422,  423,  424,  425,  426,  427,  428,  429,  430,  431,  432,  433,  434
  435,  436,  437,  438,  439,  440,  441,  442,  593,  594,  595,  596,  597,  598,  599,  600
  601,  602,  603,  604,  605,  606,  607,  608,  609,  610,  611,  612,  613,  614,  615,  616
** ... 12 like lines cut
*Elset, elset=Platine_Scheibenschnitt-2, instance=Platine-1, generate
   1,  334,    1
*Nset, nset=Platine_mittenschnitt, instance=Platine-1
  5,  6,  7,  8, 15, 16
*Elset, elset=Platine_mittenschnitt, instance=Platine-1
  68, 212
*Nset, nset=RP_Matrize, instance=WZ_Matrize-1
 765,
*Nset, nset=RP_Stempel, instance=WZ_Stempel-1
 563,
*Nset, nset=WZ_All, instance=WZ_Matrize-1, generate
   1,  764,    1
*Nset, nset=WZ_All, instance=WZ_Stempel-1, generate
   1,  562,    1
*Elset, elset=WZ_All, instance=WZ_Matrize-1, generate
   1,  317,    1
*Elset, elset=WZ_All, instance=WZ_Stempel-1, generate
   1,  219,    1
*Nset, nset=WZ_Kuehlbohrungen, instance=WZ_Matrize-1
  29,  30,  35,  38,  59,  60,  61,  62,  67,  70,  72,  73,  75,  78,  79,  82
  84,  85,  87,  90,  96,  97, 195, 196, 199, 200, 243, 244, 255, 256, 263, 265
 301, 302, 307, 310, 329, 331
*Nset, nset=WZ_Kuehlbohrungen, instance=WZ_Stempel-1
  17,  18,  20,  21,  49,  50,  51,  52,  53,  60,  74,  80,  93,  98, 145, 146
 147, 148, 164, 165, 239, 240, 251, 252, 417, 418, 421, 424
*Elset, elset=WZ_Kuehlbohrungen, instance=WZ_Matrize-1
  10,  11,  12,  42,  43,  50,  51,  55,  56,  68,  69,  76,  77, 103, 104
*Elset, elset=WZ_Kuehlbohrungen, instance=WZ_Stempel-1
   7,   8,  51,  52,  59,  60, 167, 168, 179, 180
*Elset, elset=_Matrize_Kontakt_S4, internal, instance=WZ_Matrize-1
 116, 117, 118, 119, 120, 121, 122, 123, 124, 125, 126, 127, 128, 129, 130, 131
 132, 133, 134, 135, 136, 137, 138, 139, 140, 141, 142, 143, 144, 145, 146, 147
 148, 149, 150, 151, 237, 250, 263, 276, 289
*Elset, elset=_Matrize_Kontakt_S6, internal, instance=WZ_Matrize-1, generate
 152,  162,    1
*Surface, type=ELEMENT, name=Matrize_Kontakt
_Matrize_Kontakt_S4, S4
_Matrize_Kontakt_S6, S6
*Elset, elset=_Platine_oben_S5, internal, instance=Platine-1, generate
   1,  144,    1
*Elset, elset=_Platine_oben_S1, internal, instance=Platine-1, generate
 312,  334,    1
*Surface, type=ELEMENT, name=Platine_oben
_Platine_oben_S5, S5
_Platine_oben_S1, S1
*Elset, elset=_Platine_oben_unten_S5, internal, instance=Platine-1
   1,   2,   3,   4,   5,   6,   7,   8,   9,  10,  11,  12,  13,  14,  15,  16
  17,  18,  19,  20,  21,  22,  23,  24,  25,  26,  27,  28,  29,  30,  31,  32
  33,  34,  35,  36,  37,  38,  39,  40,  41,  42,  43,  44,  45,  46,  47,  48
  49,  50,  51,  52,  53,  54,  55,  56,  57,  58,  59,  60,  61,  62,  63,  64
  65,  66,  67,  68,  69,  70,  71,  72,  73,  74,  75,  76,  77,  78,  79,  80
  81,  82,  83,  84,  85,  86,  87,  88,  89,  90,  91,  92,  93,  94,  95,  96
  97,  98,  99, 100, 101, 102, 103, 104, 105, 106, 107, 108, 109, 110, 111, 112
 113, 114, 115, 116, 117, 118, 119, 120, 121, 122, 123, 124, 125, 126, 127, 128
 129, 130, 131, 132, 133, 134, 135, 136, 137, 138, 139, 140, 141, 142, 143, 144
 213, 214, 215, 216, 217, 218, 219, 220, 221, 222, 223, 224, 225, 226, 227, 228
 229, 230, 231, 232, 233, 234, 235
*Elset, elset=_Platine_oben_unten_S2, internal, instance=Platine-1
 145, 146, 147, 148, 149, 150, 151, 152, 153, 154, 155, 156, 157, 158, 159, 160
 161, 162, 163, 164, 165, 166, 167, 168, 169, 170, 171, 172, 173, 174, 175, 176
 177, 178, 179, 180, 181, 182, 183, 184, 185, 186, 187, 188, 189, 190, 191, 192
 193, 194, 195, 196, 197, 198, 199, 200, 201, 202, 203, 204, 205, 206, 207, 208
 209, 210, 211, 212, 236, 237, 238, 239, 240, 241, 242, 243, 244, 245, 246, 247
 248, 249, 250, 251, 252, 253, 254, 255, 256, 257, 258, 259, 260, 261, 262, 263
 264, 265, 266, 267, 268, 269, 270, 271, 272, 273, 274, 275, 276, 277, 278, 279
 280, 281, 282, 283, 284, 285, 286, 287, 288, 289, 290, 291, 292, 293, 294, 295
 296, 297, 298, 299, 300, 301, 302, 303, 304, 305, 306, 307, 308, 309, 310, 311
*Elset, elset=_Platine_oben_unten_S1, internal, instance=Platine-1, generate
 312,  334,    1
*Surface, type=ELEMENT, name=Platine_oben_unten
_Platine_oben_unten_S5, S5
_Platine_oben_unten_S2, S2
_Platine_oben_unten_S1, S1
*Elset, elset=_Platine_unten_S2, internal, instance=Platine-1
 145, 146, 147, 148, 149, 150, 151, 152, 153, 154, 155, 156, 157, 158, 159, 160
 161, 162, 163, 164, 165, 166, 167, 168, 169, 170, 171, 172, 173, 174, 175, 176
 177, 178, 179, 180, 181, 182, 183, 184, 185, 186, 187, 188, 189, 190, 191, 192
 193, 194, 195, 196, 197, 198, 199, 200, 201, 202, 203, 204, 205, 206, 207, 208
 209, 210, 211, 212, 236, 237, 238, 239, 240, 241, 242, 243, 244, 245, 246, 247
 248, 249, 250, 251, 252, 253, 254, 255, 256, 257, 258, 259, 260, 261, 262, 263
 264, 265, 266, 267, 268, 269, 270, 271, 272, 273, 274, 275, 276, 277, 278, 279
 280, 281, 282, 283, 284, 285, 286, 287, 288, 289, 290, 291, 292, 293, 294, 295
 296, 297, 298, 299, 300, 301, 302, 303, 304, 305, 306, 307, 308, 309, 310, 311
*Elset, elset=_Platine_unten_S5, internal, instance=Platine-1, generate
 213,  235,    1
*Surface, type=ELEMENT, name=Platine_unten
_Platine_unten_S2, S2
_Platine_unten_S5, S5
*Elset, elset=_Stempel_Kontakt_S5, internal, instance=WZ_Stempel-1, generate
 102,  149,    1
*Surface, type=ELEMENT, name=Stempel_Kontakt
_Stempel_Kontakt_S5, S5
*Elset, elset=_WZ_Kopfflaeche_S2, internal, instance=WZ_Stempel-1, generate
 211,  219,    1
*Surface, type=ELEMENT, name=WZ_Kopfflaeche
_WZ_Kopfflaeche_S2, S2
** Constraint: RB_Matrize
*Rigid Body, ref node=RP_Matrize, elset=WZ_Matrize-1.Matrize
** Constraint: RB_Stempel
*Rigid Body, ref node=RP_Stempel, elset=WZ_Stempel-1.Stempel
*End Assembly
*Amplitude, name=Amp-Presskraft
             0.,              0.,            0.01,             0.5,            0.05,              1.
*Amplitude, name=Amp-Stempelweg_Y
             0.,              0.,            0.45,              1.
** 
** MATERIALS
** 
*Material, name=Stahlblech_22MnB5_Al-Si
*Conductivity
 30.7,  20.
 31.1, 100.
  30., 200.
 27.5, 300.
 21.7, 400.
 23.6, 600.
 25.6, 800.
 27.6,1000.
*Density
 7.83e-09,
*Elastic
212000., 0.284,   20.
207000., 0.286,  100.
199000., 0.289,  200.
193000., 0.293,  300.
166000., 0.298,  400.
158000., 0.303,  500.
150000.,  0.31,  600.
142000., 0.317,  700.
134000., 0.325,  800.
126000., 0.334,  900.
118000., 0.343, 1000.
*Expansion, zero=20.
 1.3e-05,
*Inelastic Heat Fraction
         0.9,
*Plastic, rate=0.
 56.417,  0.,500.
 56.417, 0.0128,   500.
 56.417, 0.0164,   500.
 56.417, 0.021,  500.
 56.417, 0.0268,   500.
 56.417, 0.0343,   500.
 56.417, 0.0439,   500.
 56.417, 0.0562,   500.
 56.417, 0.072,  500.
 56.417, 0.0921,   500.
 56.417, 0.1179,   500.
 56.417, 0.1509,   500.
 56.417, 0.1931,   500.
 56.417, 0.2471,   500.
 56.417, 0.3162,   500.
 53.026,  0.,520.
 53.026, 0.0128,   520.
 53.026, 0.0164,   520.
 53.026, 0.021,  520.
 53.026, 0.0268,   520.
** ... 220 like lines cut
*Plastic, rate=0.1323
 56.417,  0.,500.
 195.56, 0.0128,   500.
 203.845, 0.0164,   500.
 212.602, 0.021,  500.
 221.749, 0.0268,   500.
 231.549, 0.0343,   500.
 241.931, 0.0439,   500.
 252.939, 0.0562,   500.
 264.636, 0.072,  500.
 276.95, 0.0921,   500.
 290.034, 0.1179,   500.
 303.883, 0.1509,   500.
 318.542, 0.1931,   500.
 334.069, 0.2471,   500.
 350.515, 0.3162,   500.
 53.026,  0.,520.
 185.352, 0.0128,   520.
 192.914, 0.0164,   520.
 200.888, 0.021,  520.
 209.199, 0.0268,   520.
** ... 220 like lines cut
*Plastic, rate=0.1749
 56.417,  0.,500.
 202.678, 0.0128,   500.
 211.387, 0.0164,   500.
 220.591, 0.021,  500.
 230.206, 0.0268,   500.
 240.507, 0.0343,   500.
 251.42, 0.0439,   500.
 262.991, 0.0562,   500.
 275.287, 0.072,  500.
 288.231, 0.0921,   500.
 301.984, 0.1179,   500.
 316.542, 0.1509,   500.
 331.951, 0.1931,   500.
 348.272, 0.2471,   500.
 365.559, 0.3162,   500.
 53.026,  0.,520.
 192.261, 0.0128,   520.
 200.218, 0.0164,   520.
 208.608, 0.021,  520.
 217.353, 0.0268,   520.
** ... 220 like lines cut
*Plastic, rate=0.2314
 56.417,  0.,500.
 210.181, 0.0128,   500.
 219.337, 0.0164,   500.
 229.014, 0.021,  500.
 239.122, 0.0268,   500.
 249.952, 0.0343,   500.
 261.424, 0.0439,   500.
 273.589, 0.0562,   500.
 286.515, 0.072,  500.
 300.124, 0.0921,   500.
 314.582, 0.1179,   500.
 329.887, 0.1509,   500.
 346.086, 0.1931,   500.
 363.244, 0.2471,   500.
 381.419, 0.3162,   500.
 53.026,  0.,520.
 199.552, 0.0128,   520.
 207.925, 0.0164,   520.
 216.755, 0.021,  520.
 225.958, 0.0268,   520.
** ... 220 like lines cut
*Plastic, rate=0.306
 56.417,  0.,500.
 218.055, 0.0128,   500.
 227.68, 0.0164,   500.
 237.852, 0.021,  500.
 248.478, 0.0268,   500.
 259.862, 0.0343,   500.
 271.922, 0.0439,   500.
 284.71, 0.0562,   500.
 298.298, 0.072,  500.
 312.603, 0.0921,   500.
 327.802, 0.1179,   500.
 343.891, 0.1509,   500.
 360.919, 0.1931,   500.
 378.956, 0.2471,   500.
 398.061, 0.3162,   500.
 53.026,  0.,520.
 207.211, 0.0128,   520.
 216.022, 0.0164,   520.
 225.313, 0.021,  520.
 234.997, 0.0268,   520.
** ... 220 like lines cut
*Plastic, rate=0.4047
 56.417,  0.,500.
 226.336, 0.0128,   500.
 236.454, 0.0164,   500.
 247.147, 0.021,  500.
 258.318, 0.0268,   500.
 270.285, 0.0343,   500.
 282.963, 0.0439,   500.
 296.406, 0.0562,   500.
 310.69, 0.072,  500.
 325.728, 0.0921,   500.
 341.706, 0.1179,   500.
 358.618, 0.1509,   500.
 376.519, 0.1931,   500.
 395.48, 0.2471,   500.
 415.564, 0.3162,   500.
 53.026,  0.,520.
 215.274, 0.0128,   520.
 224.546, 0.0164,   520.
 234.323, 0.021,  520.
 244.513, 0.0268,   520.
** ... 220 like lines cut
*Plastic, rate=0.5353
 56.417,  0.,500.
 235.045, 0.0128,   500.
 245.681, 0.0164,   500.
 256.923, 0.021,  500.
 268.666, 0.0268,   500.
 281.247, 0.0343,   500.
 294.574, 0.0439,   500.
 308.706, 0.0562,   500.
 323.723, 0.072,  500.
 339.531, 0.0921,   500.
 356.328, 0.1179,   500.
 374.107, 0.1509,   500.
 392.926, 0.1931,   500.
 412.859, 0.2471,   500.
 433.972, 0.3162,   500.
 53.026,  0.,520.
 223.762, 0.0128,   520.
 233.519, 0.0164,   520.
 243.807, 0.021,  520.
 254.53, 0.0268,   520.
** ... 220 like lines cut
*Plastic, rate=0.7079
 56.417,  0.,500.
 244.194, 0.0128,   500.
 255.375, 0.0164,   500.
 267.192, 0.021,  500.
 279.536, 0.0268,   500.
 292.761, 0.0343,   500.
 306.772, 0.0439,   500.
 321.627, 0.0562,   500.
 337.413, 0.072,  500.
 354.031, 0.0921,   500.
 371.688, 0.1179,   500.
 390.378, 0.1509,   500.
 410.16, 0.1931,   500.
 431.114, 0.2471,   500.
 453.309, 0.3162,   500.
 53.026,  0.,520.
 232.688, 0.0128,   520.
 242.954, 0.0164,   520.
 253.781, 0.021,  520.
 265.064, 0.0268,   520.
** ... 220 like lines cut
*Plastic, rate=0.9363
 56.417,  0.,500.
 253.816, 0.0128,   500.
 265.57, 0.0164,   500.
 277.993, 0.021,  500.
 290.97, 0.0268,   500.
 304.873, 0.0343,   500.
 319.601, 0.0439,   500.
 335.218, 0.0562,   500.
 351.813, 0.072,  500.
 369.283, 0.0921,   500.
 387.844, 0.1179,   500.
 407.492, 0.1509,   500.
 428.288, 0.1931,   500.
 450.315, 0.2471,   500.
 473.647, 0.3162,   500.
 53.026,  0.,520.
 242.085, 0.0128,   520.
 252.889, 0.0164,   520.
 264.282, 0.021,  520.
 276.156, 0.0268,   520.
** ... 220 like lines cut
*Plastic, rate=1.2384
 56.417,  0.,500.
 263.932, 0.0128,   500.
 276.289, 0.0164,   500.
 289.348, 0.021,  500.
 302.99, 0.0268,   500.
 317.605, 0.0343,   500.
 333.088, 0.0439,   500.
 349.505, 0.0562,   500.
 366.95, 0.072,  500.
 385.316, 0.0921,   500.
 404.828, 0.1179,   500.
 425.483, 0.1509,   500.
 447.345, 0.1931,   500.
 470.501, 0.2471,   500.
 495.029, 0.3162,   500.
 53.026,  0.,520.
 251.975, 0.0128,   520.
 263.343, 0.0164,   520.
 275.332, 0.021,  520.
 287.827, 0.0268,   520.
** ... 220 like lines cut
*Plastic, rate=1.6379
 56.417,  0.,500.
 274.565, 0.0128,   500.
 287.554, 0.0164,   500.
 301.283, 0.021,  500.
 315.624, 0.0268,   500.
 330.988, 0.0343,   500.
 347.264, 0.0439,   500.
 364.522, 0.0562,   500.
 382.862, 0.072,  500.
 402.168, 0.0921,   500.
 422.68, 0.1179,   500.
 444.393, 0.1509,   500.
 467.375, 0.1931,   500.
 491.718, 0.2471,   500.
 517.502, 0.3162,   500.
 53.026,  0.,520.
 262.38, 0.0128,   520.
 274.343, 0.0164,   520.
 286.959, 0.021,  520.
 300.107, 0.0268,   520.
** ... 220 like lines cut
*Plastic, rate=2.1663
 56.417,  0.,500.
 285.743, 0.0128,   500.
 299.398, 0.0164,   500.
 313.83, 0.021,  500.
 328.906, 0.0268,   500.
 345.057, 0.0343,   500.
 362.167, 0.0439,   500.
 380.31, 0.0562,   500.
 399.588, 0.072,  500.
 419.884, 0.0921,   500.
 441.448, 0.1179,   500.
 464.273, 0.1509,   500.
 488.433, 0.1931,   500.
 514.023, 0.2471,   500.
 541.128, 0.3162,   500.
 53.026,  0.,520.
 273.329, 0.0128,   520.
 285.918, 0.0164,   520.
 299.194, 0.021,  520.
 313.03, 0.0268,   520.
** ... 220 like lines cut
*Plastic, rate=2.8651
 56.417,  0.,500.
 297.493, 0.0128,   500.
 311.847, 0.0164,   500.
 327.019, 0.021,  500.
 342.867, 0.0268,   500.
 359.845, 0.0343,   500.
 377.833, 0.0439,   500.
 396.905, 0.0562,   500.
 417.171, 0.072,  500.
 438.507, 0.0921,   500.
 461.175, 0.1179,   500.
 485.17, 0.1509,   500.
 510.567, 0.1931,   500.
 537.469, 0.2471,   500.
 565.963, 0.3162,   500.
 53.026,  0.,520.
 284.851, 0.0128,   520.
 298.098, 0.0164,   520.
 312.068, 0.021,  520.
 326.627, 0.0268,   520.
** ... 220 like lines cut
*Plastic, rate=3.7894
 56.417,  0.,500.
 309.845, 0.0128,   500.
 324.935, 0.0164,   500.
 340.884, 0.021,  500.
 357.544, 0.0268,   500.
 375.393, 0.0343,   500.
 394.302, 0.0439,   500.
 414.351, 0.0562,   500.
 435.656, 0.072,  500.
 458.085, 0.0921,   500.
 481.915, 0.1179,   500.
 507.139, 0.1509,   500.
 533.838, 0.1931,   500.
 562.118, 0.2471,   500.
 592.072, 0.3162,   500.
 53.026,  0.,520.
 296.975, 0.0128,   520.
 310.916, 0.0164,   520.
 325.616, 0.021,  520.
 340.937, 0.0268,   520.
** ... 220 like lines cut
*Plastic, rate=5.0119
 56.417,  0.,500.
 322.831, 0.0128,   500.
 338.694, 0.0164,   500.
 355.46, 0.021,  500.
 372.974, 0.0268,   500.
 391.737, 0.0343,   500.
 411.615, 0.0439,   500.
 432.692, 0.0562,   500.
 455.088, 0.072,  500.
 478.666, 0.0921,   500.
 503.717, 0.1179,   500.
 530.234, 0.1509,   500.
 558.301, 0.1931,   500.
 588.03, 0.2471,   500.
 619.519, 0.3162,   500.
 53.026,  0.,520.
 309.735, 0.0128,   520.
 324.404, 0.0164,   520.
 339.873, 0.021,  520.
 355.995, 0.0268,   520.
** ... 220 like lines cut
*Specific Heat
 4.44e+08,  20.
 4.87e+08, 100.
  5.2e+08, 200.
 5.44e+08, 300.
 5.61e+08, 400.
 5.73e+08, 500.
 5.81e+08, 600.
 5.86e+08, 700.
  5.9e+08, 800.
 5.96e+08, 900.
 6.03e+08,1000.
*Material, name=Werkzeugstahl_1_2367
*Conductivity
 29.8, 20.
 33.9,350.
 35.3,700.
*Density
 7.9e-09,
*Elastic
210000., 0.3
*Specific Heat
 5.033e+08,
** 
** INTERACTION PROPERTIES
** 
*Surface Interaction, name=Kontakt_WS-WZ
*Friction
 0.45,
*Gap Conductance
 0.708,  0.
 0.548, 0.1
 0.437, 0.2
  0.36, 0.3
 0.306, 0.4
 0.268, 0.5
 0.242, 0.6
 0.224, 0.7
 0.211, 0.8
 0.202, 0.9
 0.196,  1.
 0.192, 1.1
 0.189, 1.2
 0.187, 1.3
 0.185, 1.4
 0.184, 1.5
 0.183, 1.6
 0.183, 1.7
 0.183, 1.8
 0.182, 1.9
 0.182,  2.
    0.,  3.
*Gap Conductance, pressure
 0.609, 0.
 2.371, 2.
 2.537, 4.
 2.642, 6.
 2.719, 8.
 2.781,10.
 2.833,12.
 2.878,14.
 2.918,16.
 2.954,18.
 2.986,20.
 3.016,22.
 3.043,24.
 3.068,26.
 3.092,28.
 3.115,30.
 3.136,32.
 3.156,34.
 3.175,36.
 3.193,38.
  3.21,40.
*Gap Heat Generation
1., 0.5
** 
** PHYSICAL CONSTANTS
** 
*Physical Constants, absolute zero=-273.15, stefan boltzmann=5.67037e-11
** 
** BOUNDARY CONDITIONS
** 
** Name: Platine_Mitte Type: Displacement/Rotation
*Boundary
Platine_mittenschnitt, 1, 1
** Name: Platine_Scheibenschnitt-1 Type: Displacement/Rotation
*Boundary
Platine_Scheibenschnitt-1, 3, 3
** Name: WZ_Matrize Type: Displacement/Rotation
*Boundary
RP_Matrize, 1, 1
RP_Matrize, 2, 2
RP_Matrize, 3, 3
RP_Matrize, 4, 4
RP_Matrize, 5, 5
RP_Matrize, 6, 6
** Name: WZ_Stempel Type: Displacement/Rotation
*Boundary
RP_Stempel, 1, 1
RP_Stempel, 2, 2
RP_Stempel, 3, 3
RP_Stempel, 4, 4
RP_Stempel, 5, 5
RP_Stempel, 6, 6
** 
** INTERACTIONS
** 
** Interaction: allg_Kontakt
*Contact, op=NEW
*Contact Inclusions
Matrize_Kontakt , Platine_unten
Stempel_Kontakt , Platine_oben
*Contact Property Assignment
 ,  , Kontakt_WS-WZ
** ----------------------------------------------------------------
** 
** STEP: Step-5
** 
*Step, name=Step-5, nlgeom=YES
Umformung der Platine
*Dynamic Temperature-displacement, Explicit
, 0.45
*Bulk Viscosity
0.06, 1.2
** 
** BOUNDARY CONDITIONS
** 
** Name: WZ_Stempel Type: Displacement/Rotation
*Boundary, amplitude=Amp-Stempelweg_Y
RP_Stempel, 1, 1
RP_Stempel, 2, 2, -69.84
RP_Stempel, 3, 3
RP_Stempel, 4, 4
RP_Stempel, 5, 5
RP_Stempel, 6, 6
** 
** INTERACTIONS
** 
** Interaction: Rad
*Sradiate
Platine_oben_unten, R, 20., 0.75
** Interaction: konv_oben
*Sfilm
Platine_oben, F, 20., 0.00968
** Interaction: konv_unten
*Sfilm
Platine_unten, F, 20., 0.00484
** 
** OUTPUT REQUESTS
** 
*Restart, write, number interval=1, time marks=NO
** 
** FIELD OUTPUT: F-Output-1
** 
*Output, field, time interval=0.01
*Node Output
A, NT, RF, RFL, U, V
*Element Output, directions=YES
HFL, LE, PE, PEEQ, S, TEMP
*Contact Output
CSTRESS, 
** 
** HISTORY OUTPUT: H-Output-1
** 
*Output, history, variable=PRESELECT
*End Step
** ----------------------------------------------------------------
** 
** STEP: Step-6
** 
*Step, name=Step-6, nlgeom=YES
Nachdruecken (aufbringen der Presskraft)
*Dynamic Temperature-displacement, Explicit
, 0.05
*Bulk Viscosity
0.06, 1.2
** 
** BOUNDARY CONDITIONS
** 
** Name: Platine_Mitte Type: Displacement/Rotation
*Boundary, op=NEW
Platine_mittenschnitt, 1, 1
** Name: Platine_Scheibenschnitt-1 Type: Displacement/Rotation
*Boundary, op=NEW
Platine_Scheibenschnitt-1, 3, 3
** Name: WZ_Matrize Type: Displacement/Rotation
*Boundary, op=NEW
RP_Matrize, 1, 1
RP_Matrize, 2, 2
RP_Matrize, 3, 3
RP_Matrize, 4, 4
RP_Matrize, 5, 5
RP_Matrize, 6, 6
** Name: WZ_Stempel Type: Displacement/Rotation
*Boundary, op=NEW, amplitude=Amp-Stempelweg_Y
RP_Stempel, 1, 1
RP_Stempel, 3, 3
RP_Stempel, 4, 4
RP_Stempel, 5, 5
RP_Stempel, 6, 6
** 
** LOADS
** 
** Name: Presskraft   Type: Pressure
*Dsload, amplitude=Amp-Presskraft
WZ_Kopfflaeche, P, 16.0
** 
** INTERACTIONS
** 
** Interaction: Rad
*Sradiate, op=NEW
** Interaction: konv_oben
*Sfilm, op=NEW
** Interaction: konv_unten
*Sfilm, op=NEW
** 
** OUTPUT REQUESTS
** 
*Restart, write, number interval=1, time marks=NO
** 
** FIELD OUTPUT: F-Output-1
** 
*Output, field, time interval=0.01
*Node Output
A, NT, RF, RFL, U, V
*Element Output, directions=YES
HFL, LE, PE, PEEQ, S, TEMP
*Contact Output
CSTRESS, 
** 
** HISTORY OUTPUT: H-Output-1
** 
*Output, history, variable=PRESELECT
*End Step
